<?xml version="1.0" encoding="UTF-8"?>

<!-- generated on Sun Oct  4 03:09:02 2020 by Eclipse SUMO duarouter Version 1.6.0
<configuration xmlns:xsi="http://www.w3.org/2001/XMLSchema-instance" xsi:noNamespaceSchemaLocation="http://sumo.dlr.de/xsd/duarouterConfiguration.xsd">

    <input>
        <net-file value="/root/workspace/dataset_public/intersection_loop/its_b/map.net.xml"/>
        <route-files value="/tmp/tmpzg28xfp5/trips.trips.xml"/>
    </input>

    <output>
        <output-file value="/root/workspace/dataset_public/intersection_loop/its_b/traffic/40_patient_car_0.5_impatient_car_0.5.rou.xml"/>
        <alternatives-output value="/root/workspace/dataset_public/intersection_loop/its_b/traffic/40_patient_car_0.5_impatient_car_0.5.rou.alt.xml"/>
    </output>

    <processing>
        <unsorted-input value="true"/>
        <repair value="true"/>
    </processing>

    <report>
        <error-log value="/tmp/smarts/_duarouter_routing/traffic/40_patient_car_0.5_impatient_car_0.5.log"/>
        <no-step-log value="true"/>
    </report>

    <random_number>
        <seed value="111"/>
    </random_number>

</configuration>
-->

<routes xmlns:xsi="http://www.w3.org/2001/XMLSchema-instance" xsi:noNamespaceSchemaLocation="http://sumo.dlr.de/xsd/routes_file.xsd">
    <vType id="actor-impatient_car-1291803037896015457" minGap="2.50" speedFactor="normc(0.50,0.20,0.20,2.00)" vClass="passenger" impatience="0.50" lcCooperative="0.5" lcImpatience="0" jmDriveAfterYellowTime="1.0" accel="2.6" decel="4.5" sigma="0.5"/>
    <vehicle id="-flow-random-route-2018892d-9ab0-47d3-9918-3361fbf61b8c--3942856458605626961-3-0.0" type="actor-impatient_car-1291803037896015457" depart="0.00" departLane="1" departPos="43.71" departSpeed="max" arrivalLane="0" arrivalPos="13.54">
        <route edges="gneE9 gneE2 gneE12 gneE8 gneE9 gneE2 gneE11 gneE13 gneE14 gneE15"/>
    </vehicle>
    <vType id="actor-patient_car-6441086157082690505" minGap="2.50" speedFactor="normc(0.50,0.20,0.20,2.00)" vClass="passenger" impatience="1.00" lcCooperative="0.25" lcImpatience="1" jmDriveAfterYellowTime="1.0" jmDriveAfterRedTime="1.5" accel="2.6" decel="4.5" sigma="0.5"/>
    <vehicle id="-flow-random-route-2018892d-9ab0-47d3-9918-3361fbf61b8c--3942856458605626961-3-1.0" type="actor-patient_car-6441086157082690505" depart="0.00" departLane="1" departPos="43.71" departSpeed="max" arrivalLane="0" arrivalPos="13.54">
        <route edges="gneE9 gneE2 gneE12 gneE8 gneE9 gneE2 gneE11 gneE13 gneE14 gneE15"/>
    </vehicle>
    <vehicle id="-flow-random-route-269d570d-8508-4c6b-99b0-cfb54b1685c7--3942856458605626961-8-0.0" type="actor-impatient_car-1291803037896015457" depart="0.00" departLane="0" departPos="49.12" departSpeed="max" arrivalLane="0" arrivalPos="25.76">
        <route edges="gneE12 gneE8 gneE9 gneE2 gneE12"/>
    </vehicle>
    <vehicle id="-flow-random-route-269d570d-8508-4c6b-99b0-cfb54b1685c7--3942856458605626961-8-1.0" type="actor-patient_car-6441086157082690505" depart="0.00" departLane="0" departPos="49.12" departSpeed="max" arrivalLane="0" arrivalPos="25.76">
        <route edges="gneE12 gneE8 gneE9 gneE2 gneE12"/>
    </vehicle>
    <vehicle id="-flow-random-route-2d0e4ff0-6447-4d6a-adde-c7d2ebeb2053--3942856458605626961-10-0.0" type="actor-impatient_car-1291803037896015457" depart="0.00" departLane="0" departPos="44.63" departSpeed="max" arrivalLane="0" arrivalPos="13.25">
        <route edges="gneE13 gneE14 gneE15"/>
    </vehicle>
    <vehicle id="-flow-random-route-2d0e4ff0-6447-4d6a-adde-c7d2ebeb2053--3942856458605626961-10-1.0" type="actor-patient_car-6441086157082690505" depart="0.00" departLane="0" departPos="44.63" departSpeed="max" arrivalLane="0" arrivalPos="13.25">
        <route edges="gneE13 gneE14 gneE15"/>
    </vehicle>
    <vehicle id="-flow-random-route-2f5a037c-2c74-4b21-bd85-bddbae2d3a86--3942856458605626961-5-0.0" type="actor-impatient_car-1291803037896015457" depart="0.00" departLane="0" departPos="65.12" departSpeed="max" arrivalLane="0" arrivalPos="85.85">
        <route edges="gneE12 gneE8 gneE9"/>
    </vehicle>
    <vehicle id="-flow-random-route-2f5a037c-2c74-4b21-bd85-bddbae2d3a86--3942856458605626961-5-1.0" type="actor-patient_car-6441086157082690505" depart="0.00" departLane="0" departPos="65.12" departSpeed="max" arrivalLane="0" arrivalPos="85.85">
        <route edges="gneE12 gneE8 gneE9"/>
    </vehicle>
    <vehicle id="-flow-random-route-456cad0c-5773-4549-85a3-8d52dfcf5cd9--3942856458605626961-9-0.0" type="actor-impatient_car-1291803037896015457" depart="0.00" departLane="1" departPos="26.63" departSpeed="max" arrivalLane="1" arrivalPos="36.94">
        <route edges="gneE2 gneE12 gneE8"/>
    </vehicle>
    <vehicle id="-flow-random-route-456cad0c-5773-4549-85a3-8d52dfcf5cd9--3942856458605626961-9-1.0" type="actor-patient_car-6441086157082690505" depart="0.00" departLane="1" departPos="26.63" departSpeed="max" arrivalLane="1" arrivalPos="36.94">
        <route edges="gneE2 gneE12 gneE8"/>
    </vehicle>
    <vehicle id="-flow-random-route-5abb0064-743c-4e5e-8bf2-793893435646--3942856458605626961-6-0.0" type="actor-impatient_car-1291803037896015457" depart="0.00" departLane="0" departPos="26.09" departSpeed="max" arrivalLane="0" arrivalPos="27.50">
        <route edges="gneE12 -gneE15 -gneE14 -gneE13 -gneE11 gneE12 gneE8 gneE9 gneE2 gneE11"/>
    </vehicle>
    <vehicle id="-flow-random-route-5abb0064-743c-4e5e-8bf2-793893435646--3942856458605626961-6-1.0" type="actor-patient_car-6441086157082690505" depart="0.00" departLane="0" departPos="26.09" departSpeed="max" arrivalLane="0" arrivalPos="27.50">
        <route edges="gneE12 -gneE15 -gneE14 -gneE13 -gneE11 gneE12 gneE8 gneE9 gneE2 gneE11"/>
    </vehicle>
    <vehicle id="-flow-random-route-6fb49612-e488-4ead-8a61-ef411dc88378--3942856458605626961-4-0.0" type="actor-impatient_car-1291803037896015457" depart="0.00" departLane="0" departPos="85.05" departSpeed="max" arrivalLane="0" arrivalPos="38.04">
        <route edges="-gneE12 gneE11 gneE13"/>
    </vehicle>
    <vehicle id="-flow-random-route-6fb49612-e488-4ead-8a61-ef411dc88378--3942856458605626961-4-1.0" type="actor-patient_car-6441086157082690505" depart="0.00" departLane="0" departPos="85.05" departSpeed="max" arrivalLane="0" arrivalPos="38.04">
        <route edges="-gneE12 gneE11 gneE13"/>
    </vehicle>
    <vehicle id="-flow-random-route-757fa4dc-04a2-4f21-b820-ce485cdb2b90--3942856458605626961-19-0.0" type="actor-impatient_car-1291803037896015457" depart="0.00" departLane="0" departPos="31.32" departSpeed="max" arrivalLane="0" arrivalPos="46.72">
        <route edges="gneE11 gneE13 gneE14 gneE15 -gneE12"/>
    </vehicle>
    <vehicle id="-flow-random-route-757fa4dc-04a2-4f21-b820-ce485cdb2b90--3942856458605626961-19-1.0" type="actor-patient_car-6441086157082690505" depart="0.00" departLane="0" departPos="31.32" departSpeed="max" arrivalLane="0" arrivalPos="46.72">
        <route edges="gneE11 gneE13 gneE14 gneE15 -gneE12"/>
    </vehicle>
    <vehicle id="-flow-random-route-852fd90b-da48-4240-9d11-3660f2faf274--3942856458605626961-7-0.0" type="actor-impatient_car-1291803037896015457" depart="0.00" departLane="0" departPos="51.46" departSpeed="max" arrivalLane="1" arrivalPos="25.13">
        <route edges="gneE14 gneE15 -gneE12 gneE11 gneE13 gneE14 gneE15 gneE8 gneE9 gneE2"/>
    </vehicle>
    <vehicle id="-flow-random-route-852fd90b-da48-4240-9d11-3660f2faf274--3942856458605626961-7-1.0" type="actor-patient_car-6441086157082690505" depart="0.00" departLane="0" departPos="51.46" departSpeed="max" arrivalLane="1" arrivalPos="25.13">
        <route edges="gneE14 gneE15 -gneE12 gneE11 gneE13 gneE14 gneE15 gneE8 gneE9 gneE2"/>
    </vehicle>
    <vehicle id="-flow-random-route-86a0b0d0-cd66-4106-886d-da1095163262--3942856458605626961-18-0.0" type="actor-impatient_car-1291803037896015457" depart="0.00" departLane="0" departPos="40.90" departSpeed="max" arrivalLane="1" arrivalPos="48.21">
        <route edges="gneE14 gneE15 gneE8"/>
    </vehicle>
    <vehicle id="-flow-random-route-86a0b0d0-cd66-4106-886d-da1095163262--3942856458605626961-18-1.0" type="actor-patient_car-6441086157082690505" depart="0.00" departLane="0" departPos="40.90" departSpeed="max" arrivalLane="1" arrivalPos="48.21">
        <route edges="gneE14 gneE15 gneE8"/>
    </vehicle>
    <vehicle id="-flow-random-route-8e7c290b-85bf-42fe-a50e-85b49303dfb6--3942856458605626961-0-0.0" type="actor-impatient_car-1291803037896015457" depart="0.00" departLane="0" departPos="4.78" departSpeed="max" arrivalLane="0" arrivalPos="42.14">
        <route edges="-gneE11 gneE12 -gneE15 -gneE14 -gneE13 -gneE11 gneE12 gneE8 gneE9 gneE2"/>
    </vehicle>
    <vehicle id="-flow-random-route-8e7c290b-85bf-42fe-a50e-85b49303dfb6--3942856458605626961-0-1.0" type="actor-patient_car-6441086157082690505" depart="0.00" departLane="0" departPos="4.78" departSpeed="max" arrivalLane="0" arrivalPos="42.14">
        <route edges="-gneE11 gneE12 -gneE15 -gneE14 -gneE13 -gneE11 gneE12 gneE8 gneE9 gneE2"/>
    </vehicle>
    <vehicle id="-flow-random-route-90801df1-75a7-4ed5-98cb-632d7d00b76c--3942856458605626961-14-0.0" type="actor-impatient_car-1291803037896015457" depart="0.00" departLane="0" departPos="37.68" departSpeed="max" arrivalLane="0" arrivalPos="16.58">
        <route edges="gneE13 gneE14 gneE15 -gneE12 gneE11"/>
    </vehicle>
    <vehicle id="-flow-random-route-90801df1-75a7-4ed5-98cb-632d7d00b76c--3942856458605626961-14-1.0" type="actor-patient_car-6441086157082690505" depart="0.00" departLane="0" departPos="37.68" departSpeed="max" arrivalLane="0" arrivalPos="16.58">
        <route edges="gneE13 gneE14 gneE15 -gneE12 gneE11"/>
    </vehicle>
    <vehicle id="-flow-random-route-9c80d656-1e6b-412e-85cc-496504b92178--3942856458605626961-11-0.0" type="actor-impatient_car-1291803037896015457" depart="0.00" departLane="0" departPos="70.15" departSpeed="max" arrivalLane="0" arrivalPos="9.78">
        <route edges="-gneE12 gneE11 gneE13 gneE14 gneE15"/>
    </vehicle>
    <vehicle id="-flow-random-route-9c80d656-1e6b-412e-85cc-496504b92178--3942856458605626961-11-1.0" type="actor-patient_car-6441086157082690505" depart="0.00" departLane="0" departPos="70.15" departSpeed="max" arrivalLane="0" arrivalPos="9.78">
        <route edges="-gneE12 gneE11 gneE13 gneE14 gneE15"/>
    </vehicle>
    <vehicle id="-flow-random-route-ac9bb234-33ed-46b1-ab4f-bba3d3bba046--3942856458605626961-16-0.0" type="actor-impatient_car-1291803037896015457" depart="0.00" departLane="0" departPos="49.06" departSpeed="max" arrivalLane="0" arrivalPos="13.09">
        <route edges="-gneE11 gneE12 gneE8 gneE9 gneE2 gneE12 -gneE15 -gneE14 -gneE13 -gneE11"/>
    </vehicle>
    <vehicle id="-flow-random-route-ac9bb234-33ed-46b1-ab4f-bba3d3bba046--3942856458605626961-16-1.0" type="actor-patient_car-6441086157082690505" depart="0.00" departLane="0" departPos="49.06" departSpeed="max" arrivalLane="0" arrivalPos="13.09">
        <route edges="-gneE11 gneE12 gneE8 gneE9 gneE2 gneE12 -gneE15 -gneE14 -gneE13 -gneE11"/>
    </vehicle>
    <vehicle id="-flow-random-route-b68996f4-90b5-4d06-9486-81d1fe18bfff--3942856458605626961-2-0.0" type="actor-impatient_car-1291803037896015457" depart="0.00" departLane="0" departPos="29.43" departSpeed="max" arrivalLane="0" arrivalPos="20.26">
        <route edges="-gneE11 gneE12 gneE8 gneE9 gneE2 gneE12 -gneE15 -gneE14 -gneE13 -gneE11"/>
    </vehicle>
    <vehicle id="-flow-random-route-b68996f4-90b5-4d06-9486-81d1fe18bfff--3942856458605626961-2-1.0" type="actor-patient_car-6441086157082690505" depart="0.00" departLane="0" departPos="29.43" departSpeed="max" arrivalLane="0" arrivalPos="20.26">
        <route edges="-gneE11 gneE12 gneE8 gneE9 gneE2 gneE12 -gneE15 -gneE14 -gneE13 -gneE11"/>
    </vehicle>
    <vehicle id="-flow-random-route-cfe218c5-0980-480c-968e-959c77b9436b--3942856458605626961-17-0.0" type="actor-impatient_car-1291803037896015457" depart="0.00" departLane="0" departPos="46.65" departSpeed="max" arrivalLane="0" arrivalPos="40.99">
        <route edges="-gneE14 -gneE13 -gneE11 gneE12 -gneE15"/>
    </vehicle>
    <vehicle id="-flow-random-route-cfe218c5-0980-480c-968e-959c77b9436b--3942856458605626961-17-1.0" type="actor-patient_car-6441086157082690505" depart="0.00" departLane="0" departPos="46.65" departSpeed="max" arrivalLane="0" arrivalPos="40.99">
        <route edges="-gneE14 -gneE13 -gneE11 gneE12 -gneE15"/>
    </vehicle>
    <vehicle id="-flow-random-route-ef967e89-134c-4758-929c-ae9a95fad4bc--3942856458605626961-15-0.0" type="actor-impatient_car-1291803037896015457" depart="0.00" departLane="0" departPos="53.25" departSpeed="max" arrivalLane="1" arrivalPos="29.91">
        <route edges="gneE8 gneE9 gneE2 gneE12 -gneE15 -gneE14 -gneE13 -gneE11 gneE12 gneE8"/>
    </vehicle>
    <vehicle id="-flow-random-route-ef967e89-134c-4758-929c-ae9a95fad4bc--3942856458605626961-15-1.0" type="actor-patient_car-6441086157082690505" depart="0.00" departLane="0" departPos="53.25" departSpeed="max" arrivalLane="1" arrivalPos="29.91">
        <route edges="gneE8 gneE9 gneE2 gneE12 -gneE15 -gneE14 -gneE13 -gneE11 gneE12 gneE8"/>
    </vehicle>
    <vehicle id="-flow-random-route-f9a409e6-c3e9-4489-bd2c-bfe670150dce--3942856458605626961-13-0.0" type="actor-impatient_car-1291803037896015457" depart="0.00" departLane="0" departPos="43.44" departSpeed="max" arrivalLane="0" arrivalPos="38.71">
        <route edges="-gneE14 -gneE13 -gneE11 gneE12 -gneE15"/>
    </vehicle>
    <vehicle id="-flow-random-route-f9a409e6-c3e9-4489-bd2c-bfe670150dce--3942856458605626961-13-1.0" type="actor-patient_car-6441086157082690505" depart="0.00" departLane="0" departPos="43.44" departSpeed="max" arrivalLane="0" arrivalPos="38.71">
        <route edges="-gneE14 -gneE13 -gneE11 gneE12 -gneE15"/>
    </vehicle>
    <vehicle id="-flow-random-route-fcddfd7a-9134-474f-9d1a-718efe4b4821--3942856458605626961-12-0.0" type="actor-impatient_car-1291803037896015457" depart="0.00" departLane="0" departPos="49.54" departSpeed="max" arrivalLane="0" arrivalPos="45.07">
        <route edges="gneE9 gneE2 gneE12 gneE8 gneE9 gneE2 gneE12 -gneE15 -gneE14 -gneE13"/>
    </vehicle>
    <vehicle id="-flow-random-route-fcddfd7a-9134-474f-9d1a-718efe4b4821--3942856458605626961-12-1.0" type="actor-patient_car-6441086157082690505" depart="0.00" departLane="0" departPos="49.54" departSpeed="max" arrivalLane="0" arrivalPos="45.07">
        <route edges="gneE9 gneE2 gneE12 gneE8 gneE9 gneE2 gneE12 -gneE15 -gneE14 -gneE13"/>
    </vehicle>
    <vehicle id="-flow-random-route-fe898913-cbc0-4f9b-bf12-1d780179f35e--3942856458605626961-1-0.0" type="actor-impatient_car-1291803037896015457" depart="0.00" departLane="0" departPos="48.93" departSpeed="max" arrivalLane="0" arrivalPos="3.38">
        <route edges="-gneE12 gneE11 gneE13 gneE14 gneE15 gneE8"/>
    </vehicle>
    <vehicle id="-flow-random-route-fe898913-cbc0-4f9b-bf12-1d780179f35e--3942856458605626961-1-1.0" type="actor-patient_car-6441086157082690505" depart="0.00" departLane="0" departPos="48.93" departSpeed="max" arrivalLane="0" arrivalPos="3.38">
        <route edges="-gneE12 gneE11 gneE13 gneE14 gneE15 gneE8"/>
    </vehicle>
    <vehicle id="-flow-random-route-2018892d-9ab0-47d3-9918-3361fbf61b8c--3942856458605626961-3-0.1" type="actor-impatient_car-1291803037896015457" depart="240.00" departLane="1" departPos="43.71" departSpeed="max" arrivalLane="0" arrivalPos="13.54">
        <route edges="gneE9 gneE2 gneE12 gneE8 gneE9 gneE2 gneE11 gneE13 gneE14 gneE15"/>
    </vehicle>
    <vehicle id="-flow-random-route-2018892d-9ab0-47d3-9918-3361fbf61b8c--3942856458605626961-3-1.1" type="actor-patient_car-6441086157082690505" depart="240.00" departLane="1" departPos="43.71" departSpeed="max" arrivalLane="0" arrivalPos="13.54">
        <route edges="gneE9 gneE2 gneE12 gneE8 gneE9 gneE2 gneE11 gneE13 gneE14 gneE15"/>
    </vehicle>
    <vehicle id="-flow-random-route-269d570d-8508-4c6b-99b0-cfb54b1685c7--3942856458605626961-8-0.1" type="actor-impatient_car-1291803037896015457" depart="240.00" departLane="0" departPos="49.12" departSpeed="max" arrivalLane="0" arrivalPos="25.76">
        <route edges="gneE12 gneE8 gneE9 gneE2 gneE12"/>
    </vehicle>
    <vehicle id="-flow-random-route-269d570d-8508-4c6b-99b0-cfb54b1685c7--3942856458605626961-8-1.1" type="actor-patient_car-6441086157082690505" depart="240.00" departLane="0" departPos="49.12" departSpeed="max" arrivalLane="0" arrivalPos="25.76">
        <route edges="gneE12 gneE8 gneE9 gneE2 gneE12"/>
    </vehicle>
    <vehicle id="-flow-random-route-2d0e4ff0-6447-4d6a-adde-c7d2ebeb2053--3942856458605626961-10-0.1" type="actor-impatient_car-1291803037896015457" depart="240.00" departLane="0" departPos="44.63" departSpeed="max" arrivalLane="0" arrivalPos="13.25">
        <route edges="gneE13 gneE14 gneE15"/>
    </vehicle>
    <vehicle id="-flow-random-route-2d0e4ff0-6447-4d6a-adde-c7d2ebeb2053--3942856458605626961-10-1.1" type="actor-patient_car-6441086157082690505" depart="240.00" departLane="0" departPos="44.63" departSpeed="max" arrivalLane="0" arrivalPos="13.25">
        <route edges="gneE13 gneE14 gneE15"/>
    </vehicle>
    <vehicle id="-flow-random-route-2f5a037c-2c74-4b21-bd85-bddbae2d3a86--3942856458605626961-5-0.1" type="actor-impatient_car-1291803037896015457" depart="240.00" departLane="0" departPos="65.12" departSpeed="max" arrivalLane="0" arrivalPos="85.85">
        <route edges="gneE12 gneE8 gneE9"/>
    </vehicle>
    <vehicle id="-flow-random-route-2f5a037c-2c74-4b21-bd85-bddbae2d3a86--3942856458605626961-5-1.1" type="actor-patient_car-6441086157082690505" depart="240.00" departLane="0" departPos="65.12" departSpeed="max" arrivalLane="0" arrivalPos="85.85">
        <route edges="gneE12 gneE8 gneE9"/>
    </vehicle>
    <vehicle id="-flow-random-route-456cad0c-5773-4549-85a3-8d52dfcf5cd9--3942856458605626961-9-0.1" type="actor-impatient_car-1291803037896015457" depart="240.00" departLane="1" departPos="26.63" departSpeed="max" arrivalLane="1" arrivalPos="36.94">
        <route edges="gneE2 gneE12 gneE8"/>
    </vehicle>
    <vehicle id="-flow-random-route-456cad0c-5773-4549-85a3-8d52dfcf5cd9--3942856458605626961-9-1.1" type="actor-patient_car-6441086157082690505" depart="240.00" departLane="1" departPos="26.63" departSpeed="max" arrivalLane="1" arrivalPos="36.94">
        <route edges="gneE2 gneE12 gneE8"/>
    </vehicle>
    <vehicle id="-flow-random-route-5abb0064-743c-4e5e-8bf2-793893435646--3942856458605626961-6-0.1" type="actor-impatient_car-1291803037896015457" depart="240.00" departLane="0" departPos="26.09" departSpeed="max" arrivalLane="0" arrivalPos="27.50">
        <route edges="gneE12 -gneE15 -gneE14 -gneE13 -gneE11 gneE12 gneE8 gneE9 gneE2 gneE11"/>
    </vehicle>
    <vehicle id="-flow-random-route-5abb0064-743c-4e5e-8bf2-793893435646--3942856458605626961-6-1.1" type="actor-patient_car-6441086157082690505" depart="240.00" departLane="0" departPos="26.09" departSpeed="max" arrivalLane="0" arrivalPos="27.50">
        <route edges="gneE12 -gneE15 -gneE14 -gneE13 -gneE11 gneE12 gneE8 gneE9 gneE2 gneE11"/>
    </vehicle>
    <vehicle id="-flow-random-route-6fb49612-e488-4ead-8a61-ef411dc88378--3942856458605626961-4-0.1" type="actor-impatient_car-1291803037896015457" depart="240.00" departLane="0" departPos="85.05" departSpeed="max" arrivalLane="0" arrivalPos="38.04">
        <route edges="-gneE12 gneE11 gneE13"/>
    </vehicle>
    <vehicle id="-flow-random-route-6fb49612-e488-4ead-8a61-ef411dc88378--3942856458605626961-4-1.1" type="actor-patient_car-6441086157082690505" depart="240.00" departLane="0" departPos="85.05" departSpeed="max" arrivalLane="0" arrivalPos="38.04">
        <route edges="-gneE12 gneE11 gneE13"/>
    </vehicle>
    <vehicle id="-flow-random-route-757fa4dc-04a2-4f21-b820-ce485cdb2b90--3942856458605626961-19-0.1" type="actor-impatient_car-1291803037896015457" depart="240.00" departLane="0" departPos="31.32" departSpeed="max" arrivalLane="0" arrivalPos="46.72">
        <route edges="gneE11 gneE13 gneE14 gneE15 -gneE12"/>
    </vehicle>
    <vehicle id="-flow-random-route-757fa4dc-04a2-4f21-b820-ce485cdb2b90--3942856458605626961-19-1.1" type="actor-patient_car-6441086157082690505" depart="240.00" departLane="0" departPos="31.32" departSpeed="max" arrivalLane="0" arrivalPos="46.72">
        <route edges="gneE11 gneE13 gneE14 gneE15 -gneE12"/>
    </vehicle>
    <vehicle id="-flow-random-route-852fd90b-da48-4240-9d11-3660f2faf274--3942856458605626961-7-0.1" type="actor-impatient_car-1291803037896015457" depart="240.00" departLane="0" departPos="51.46" departSpeed="max" arrivalLane="1" arrivalPos="25.13">
        <route edges="gneE14 gneE15 -gneE12 gneE11 gneE13 gneE14 gneE15 gneE8 gneE9 gneE2"/>
    </vehicle>
    <vehicle id="-flow-random-route-852fd90b-da48-4240-9d11-3660f2faf274--3942856458605626961-7-1.1" type="actor-patient_car-6441086157082690505" depart="240.00" departLane="0" departPos="51.46" departSpeed="max" arrivalLane="1" arrivalPos="25.13">
        <route edges="gneE14 gneE15 -gneE12 gneE11 gneE13 gneE14 gneE15 gneE8 gneE9 gneE2"/>
    </vehicle>
    <vehicle id="-flow-random-route-86a0b0d0-cd66-4106-886d-da1095163262--3942856458605626961-18-0.1" type="actor-impatient_car-1291803037896015457" depart="240.00" departLane="0" departPos="40.90" departSpeed="max" arrivalLane="1" arrivalPos="48.21">
        <route edges="gneE14 gneE15 gneE8"/>
    </vehicle>
    <vehicle id="-flow-random-route-86a0b0d0-cd66-4106-886d-da1095163262--3942856458605626961-18-1.1" type="actor-patient_car-6441086157082690505" depart="240.00" departLane="0" departPos="40.90" departSpeed="max" arrivalLane="1" arrivalPos="48.21">
        <route edges="gneE14 gneE15 gneE8"/>
    </vehicle>
    <vehicle id="-flow-random-route-8e7c290b-85bf-42fe-a50e-85b49303dfb6--3942856458605626961-0-0.1" type="actor-impatient_car-1291803037896015457" depart="240.00" departLane="0" departPos="4.78" departSpeed="max" arrivalLane="0" arrivalPos="42.14">
        <route edges="-gneE11 gneE12 -gneE15 -gneE14 -gneE13 -gneE11 gneE12 gneE8 gneE9 gneE2"/>
    </vehicle>
    <vehicle id="-flow-random-route-8e7c290b-85bf-42fe-a50e-85b49303dfb6--3942856458605626961-0-1.1" type="actor-patient_car-6441086157082690505" depart="240.00" departLane="0" departPos="4.78" departSpeed="max" arrivalLane="0" arrivalPos="42.14">
        <route edges="-gneE11 gneE12 -gneE15 -gneE14 -gneE13 -gneE11 gneE12 gneE8 gneE9 gneE2"/>
    </vehicle>
    <vehicle id="-flow-random-route-90801df1-75a7-4ed5-98cb-632d7d00b76c--3942856458605626961-14-0.1" type="actor-impatient_car-1291803037896015457" depart="240.00" departLane="0" departPos="37.68" departSpeed="max" arrivalLane="0" arrivalPos="16.58">
        <route edges="gneE13 gneE14 gneE15 -gneE12 gneE11"/>
    </vehicle>
    <vehicle id="-flow-random-route-90801df1-75a7-4ed5-98cb-632d7d00b76c--3942856458605626961-14-1.1" type="actor-patient_car-6441086157082690505" depart="240.00" departLane="0" departPos="37.68" departSpeed="max" arrivalLane="0" arrivalPos="16.58">
        <route edges="gneE13 gneE14 gneE15 -gneE12 gneE11"/>
    </vehicle>
    <vehicle id="-flow-random-route-9c80d656-1e6b-412e-85cc-496504b92178--3942856458605626961-11-0.1" type="actor-impatient_car-1291803037896015457" depart="240.00" departLane="0" departPos="70.15" departSpeed="max" arrivalLane="0" arrivalPos="9.78">
        <route edges="-gneE12 gneE11 gneE13 gneE14 gneE15"/>
    </vehicle>
    <vehicle id="-flow-random-route-9c80d656-1e6b-412e-85cc-496504b92178--3942856458605626961-11-1.1" type="actor-patient_car-6441086157082690505" depart="240.00" departLane="0" departPos="70.15" departSpeed="max" arrivalLane="0" arrivalPos="9.78">
        <route edges="-gneE12 gneE11 gneE13 gneE14 gneE15"/>
    </vehicle>
    <vehicle id="-flow-random-route-ac9bb234-33ed-46b1-ab4f-bba3d3bba046--3942856458605626961-16-0.1" type="actor-impatient_car-1291803037896015457" depart="240.00" departLane="0" departPos="49.06" departSpeed="max" arrivalLane="0" arrivalPos="13.09">
        <route edges="-gneE11 gneE12 gneE8 gneE9 gneE2 gneE12 -gneE15 -gneE14 -gneE13 -gneE11"/>
    </vehicle>
    <vehicle id="-flow-random-route-ac9bb234-33ed-46b1-ab4f-bba3d3bba046--3942856458605626961-16-1.1" type="actor-patient_car-6441086157082690505" depart="240.00" departLane="0" departPos="49.06" departSpeed="max" arrivalLane="0" arrivalPos="13.09">
        <route edges="-gneE11 gneE12 gneE8 gneE9 gneE2 gneE12 -gneE15 -gneE14 -gneE13 -gneE11"/>
    </vehicle>
    <vehicle id="-flow-random-route-b68996f4-90b5-4d06-9486-81d1fe18bfff--3942856458605626961-2-0.1" type="actor-impatient_car-1291803037896015457" depart="240.00" departLane="0" departPos="29.43" departSpeed="max" arrivalLane="0" arrivalPos="20.26">
        <route edges="-gneE11 gneE12 gneE8 gneE9 gneE2 gneE12 -gneE15 -gneE14 -gneE13 -gneE11"/>
    </vehicle>
    <vehicle id="-flow-random-route-b68996f4-90b5-4d06-9486-81d1fe18bfff--3942856458605626961-2-1.1" type="actor-patient_car-6441086157082690505" depart="240.00" departLane="0" departPos="29.43" departSpeed="max" arrivalLane="0" arrivalPos="20.26">
        <route edges="-gneE11 gneE12 gneE8 gneE9 gneE2 gneE12 -gneE15 -gneE14 -gneE13 -gneE11"/>
    </vehicle>
    <vehicle id="-flow-random-route-cfe218c5-0980-480c-968e-959c77b9436b--3942856458605626961-17-0.1" type="actor-impatient_car-1291803037896015457" depart="240.00" departLane="0" departPos="46.65" departSpeed="max" arrivalLane="0" arrivalPos="40.99">
        <route edges="-gneE14 -gneE13 -gneE11 gneE12 -gneE15"/>
    </vehicle>
    <vehicle id="-flow-random-route-cfe218c5-0980-480c-968e-959c77b9436b--3942856458605626961-17-1.1" type="actor-patient_car-6441086157082690505" depart="240.00" departLane="0" departPos="46.65" departSpeed="max" arrivalLane="0" arrivalPos="40.99">
        <route edges="-gneE14 -gneE13 -gneE11 gneE12 -gneE15"/>
    </vehicle>
    <vehicle id="-flow-random-route-ef967e89-134c-4758-929c-ae9a95fad4bc--3942856458605626961-15-0.1" type="actor-impatient_car-1291803037896015457" depart="240.00" departLane="0" departPos="53.25" departSpeed="max" arrivalLane="1" arrivalPos="29.91">
        <route edges="gneE8 gneE9 gneE2 gneE12 -gneE15 -gneE14 -gneE13 -gneE11 gneE12 gneE8"/>
    </vehicle>
    <vehicle id="-flow-random-route-ef967e89-134c-4758-929c-ae9a95fad4bc--3942856458605626961-15-1.1" type="actor-patient_car-6441086157082690505" depart="240.00" departLane="0" departPos="53.25" departSpeed="max" arrivalLane="1" arrivalPos="29.91">
        <route edges="gneE8 gneE9 gneE2 gneE12 -gneE15 -gneE14 -gneE13 -gneE11 gneE12 gneE8"/>
    </vehicle>
    <vehicle id="-flow-random-route-f9a409e6-c3e9-4489-bd2c-bfe670150dce--3942856458605626961-13-0.1" type="actor-impatient_car-1291803037896015457" depart="240.00" departLane="0" departPos="43.44" departSpeed="max" arrivalLane="0" arrivalPos="38.71">
        <route edges="-gneE14 -gneE13 -gneE11 gneE12 -gneE15"/>
    </vehicle>
    <vehicle id="-flow-random-route-f9a409e6-c3e9-4489-bd2c-bfe670150dce--3942856458605626961-13-1.1" type="actor-patient_car-6441086157082690505" depart="240.00" departLane="0" departPos="43.44" departSpeed="max" arrivalLane="0" arrivalPos="38.71">
        <route edges="-gneE14 -gneE13 -gneE11 gneE12 -gneE15"/>
    </vehicle>
    <vehicle id="-flow-random-route-fcddfd7a-9134-474f-9d1a-718efe4b4821--3942856458605626961-12-0.1" type="actor-impatient_car-1291803037896015457" depart="240.00" departLane="0" departPos="49.54" departSpeed="max" arrivalLane="0" arrivalPos="45.07">
        <route edges="gneE9 gneE2 gneE12 gneE8 gneE9 gneE2 gneE12 -gneE15 -gneE14 -gneE13"/>
    </vehicle>
    <vehicle id="-flow-random-route-fcddfd7a-9134-474f-9d1a-718efe4b4821--3942856458605626961-12-1.1" type="actor-patient_car-6441086157082690505" depart="240.00" departLane="0" departPos="49.54" departSpeed="max" arrivalLane="0" arrivalPos="45.07">
        <route edges="gneE9 gneE2 gneE12 gneE8 gneE9 gneE2 gneE12 -gneE15 -gneE14 -gneE13"/>
    </vehicle>
    <vehicle id="-flow-random-route-fe898913-cbc0-4f9b-bf12-1d780179f35e--3942856458605626961-1-0.1" type="actor-impatient_car-1291803037896015457" depart="240.00" departLane="0" departPos="48.93" departSpeed="max" arrivalLane="0" arrivalPos="3.38">
        <route edges="-gneE12 gneE11 gneE13 gneE14 gneE15 gneE8"/>
    </vehicle>
    <vehicle id="-flow-random-route-fe898913-cbc0-4f9b-bf12-1d780179f35e--3942856458605626961-1-1.1" type="actor-patient_car-6441086157082690505" depart="240.00" departLane="0" departPos="48.93" departSpeed="max" arrivalLane="0" arrivalPos="3.38">
        <route edges="-gneE12 gneE11 gneE13 gneE14 gneE15 gneE8"/>
    </vehicle>
    <vehicle id="-flow-random-route-2018892d-9ab0-47d3-9918-3361fbf61b8c--3942856458605626961-3-0.2" type="actor-impatient_car-1291803037896015457" depart="480.00" departLane="1" departPos="43.71" departSpeed="max" arrivalLane="0" arrivalPos="13.54">
        <route edges="gneE9 gneE2 gneE12 gneE8 gneE9 gneE2 gneE11 gneE13 gneE14 gneE15"/>
    </vehicle>
    <vehicle id="-flow-random-route-2018892d-9ab0-47d3-9918-3361fbf61b8c--3942856458605626961-3-1.2" type="actor-patient_car-6441086157082690505" depart="480.00" departLane="1" departPos="43.71" departSpeed="max" arrivalLane="0" arrivalPos="13.54">
        <route edges="gneE9 gneE2 gneE12 gneE8 gneE9 gneE2 gneE11 gneE13 gneE14 gneE15"/>
    </vehicle>
    <vehicle id="-flow-random-route-269d570d-8508-4c6b-99b0-cfb54b1685c7--3942856458605626961-8-0.2" type="actor-impatient_car-1291803037896015457" depart="480.00" departLane="0" departPos="49.12" departSpeed="max" arrivalLane="0" arrivalPos="25.76">
        <route edges="gneE12 gneE8 gneE9 gneE2 gneE12"/>
    </vehicle>
    <vehicle id="-flow-random-route-269d570d-8508-4c6b-99b0-cfb54b1685c7--3942856458605626961-8-1.2" type="actor-patient_car-6441086157082690505" depart="480.00" departLane="0" departPos="49.12" departSpeed="max" arrivalLane="0" arrivalPos="25.76">
        <route edges="gneE12 gneE8 gneE9 gneE2 gneE12"/>
    </vehicle>