<?xml version="1.0" encoding="UTF-8"?>

<!-- generated on Sun Sep 20 09:13:45 2020 by Eclipse SUMO duarouter Version 1.6.0
<configuration xmlns:xsi="http://www.w3.org/2001/XMLSchema-instance" xsi:noNamespaceSchemaLocation="http://sumo.dlr.de/xsd/duarouterConfiguration.xsd">

    <input>
        <net-file value="../dataset_public/mixed_loop/roundabout_merge_a/map.net.xml"/>
        <route-files value="/tmp/tmp717vhsyo/trips.trips.xml"/>
    </input>

    <output>
        <output-file value="../dataset_public/mixed_loop/roundabout_merge_a/traffic/30_patient_car.rou.xml"/>
        <alternatives-output value="../dataset_public/mixed_loop/roundabout_merge_a/traffic/30_patient_car.rou.alt.xml"/>
    </output>

    <processing>
        <unsorted-input value="true"/>
        <repair value="true"/>
    </processing>

    <report>
        <error-log value="/tmp/smarts/_duarouter_routing/traffic/30_patient_car.log"/>
        <no-step-log value="true"/>
    </report>

    <random_number>
        <seed value="42"/>
    </random_number>

</configuration>
-->

<routes xmlns:xsi="http://www.w3.org/2001/XMLSchema-instance" xsi:noNamespaceSchemaLocation="http://sumo.dlr.de/xsd/routes_file.xsd">
    <vType id="actor-car-8467147775937823299" minGap="2.50" speedFactor="normc(0.50,0.20,0.20,2.00)" vClass="passenger" impatience="0.50" lcCooperative="0.5" lcImpatience="0" jmDriveAfterYellowTime="1.0" accel="2.6" decel="4.5" sigma="0.5"/>
    <vehicle id="-flow-random-route-033aa9b9-a187-4290-bab5-249a6604111f-2024821468751959226-16-0.0" type="actor-car-8467147775937823299" depart="0.00" departLane="0" departPos="13.06" departSpeed="max" arrivalLane="1" arrivalPos="20.19">
        <route edges="edge-south-SE edge-east-EN edge-north-NW edge-west-WS gneE60 gneE60.110 gneE61 gneE62 gneE69 gneE71"/>
    </vehicle>
    <vehicle id="-flow-random-route-075c2228-9fc9-4b13-aed9-a351fd945a2a-2024821468751959226-10-0.0" type="actor-car-8467147775937823299" depart="0.00" departLane="1" departPos="49.46" departSpeed="max" arrivalLane="0" arrivalPos="11.60">
        <route edges="gneE61 gneE62 gneE78 gneE78.64 gneE80 edge-east-EN edge-north-NW edge-west-WS gneE60 gneE60.110"/>
    </vehicle>
    <vehicle id="-flow-random-route-0e646390-ddff-4f82-be05-bb4d4b50c9a6-2024821468751959226-2-0.0" type="actor-car-8467147775937823299" depart="0.00" departLane="0" departPos="9.90" departSpeed="max" arrivalLane="1" arrivalPos="15.45">
        <route edges="gneE60.110 gneE61 gneE62 gneE78 gneE78.64 gneE80 edge-east-EN edge-north-NW edge-west-WS gneE60"/>
    </vehicle>
    <vehicle id="-flow-random-route-11da50c5-dc21-4d9d-ae08-f18dee089904-2024821468751959226-20-0.0" type="actor-car-8467147775937823299" depart="0.00" departLane="0" departPos="62.36" departSpeed="max" arrivalLane="1" arrivalPos="71.78">
        <route edges="gneE61 gneE62 gneE69"/>
    </vehicle>
    <vehicle id="-flow-random-route-4183ba5e-00b7-4adb-8eea-032fd8186262-2024821468751959226-22-0.0" type="actor-car-8467147775937823299" depart="0.00" departLane="0" departPos="1.17" departSpeed="max" arrivalLane="0" arrivalPos="16.29">
        <route edges="gneE61 gneE62 gneE78 gneE81 gneE60.110 gneE61 gneE62 gneE69 gneE71 edge-west-WS"/>
    </vehicle>
    <vehicle id="-flow-random-route-455ead8e-7abb-4e49-b950-7a9665aa328e-2024821468751959226-3-0.0" type="actor-car-8467147775937823299" depart="0.00" departLane="0" departPos="73.53" departSpeed="max" arrivalLane="0" arrivalPos="12.51">
        <route edges="gneE71 edge-west-WS"/>
    </vehicle>
    <vehicle id="-flow-random-route-4c5e19b5-7156-4100-93cd-d7f888fe908c-2024821468751959226-7-0.0" type="actor-car-8467147775937823299" depart="0.00" departLane="0" departPos="63.78" departSpeed="max" arrivalLane="0" arrivalPos="39.79">
        <route edges="gneE71 edge-west-WS edge-south-SE edge-east-EN edge-north-NW edge-west-WS gneE60 gneE60.110 gneE61 gneE62"/>
    </vehicle>
    <vehicle id="-flow-random-route-4d513657-7d7d-4523-afee-8f9634765144-2024821468751959226-9-0.0" type="actor-car-8467147775937823299" depart="0.00" departLane="0" departPos="55.69" departSpeed="max" arrivalLane="0" arrivalPos="90.96">
        <route edges="gneE60 gneE60.110 gneE61"/>
    </vehicle>
    <vehicle id="-flow-random-route-5308d664-5560-4b2a-a4cb-f4ffcbc41f4f-2024821468751959226-6-0.0" type="actor-car-8467147775937823299" depart="0.00" departLane="0" departPos="66.09" departSpeed="max" arrivalLane="0" arrivalPos="37.10">
        <route edges="edge-west-WS gneE60 gneE60.110"/>
    </vehicle>
    <vehicle id="-flow-random-route-534a9911-7f14-4a00-968a-dad8ec82867d-2024821468751959226-5-0.0" type="actor-car-8467147775937823299" depart="0.00" departLane="0" departPos="78.10" departSpeed="max" arrivalLane="0" arrivalPos="70.54">
        <route edges="gneE60 gneE60.110 gneE61 gneE62 gneE78 gneE81 gneE60.110 gneE61 gneE62 gneE69"/>
    </vehicle>
    <vehicle id="-flow-random-route-54d4d7a0-0c12-4b3b-b5e1-64ccaa667854-2024821468751959226-28-0.0" type="actor-car-8467147775937823299" depart="0.00" departLane="1" departPos="12.36" departSpeed="max" arrivalLane="1" arrivalPos="32.63">
        <route edges="gneE71 edge-west-WS gneE60 gneE60.110 gneE61 gneE62 gneE78 gneE78.64 gneE80 edge-east-EN"/>
    </vehicle>
    <vehicle id="-flow-random-route-612be3fa-af0a-4a2d-9685-0cb6e22582f2-2024821468751959226-19-0.0" type="actor-car-8467147775937823299" depart="0.00" departLane="0" departPos="30.31" departSpeed="max" arrivalLane="1" arrivalPos="12.71">
        <route edges="gneE78 gneE78.64 gneE80 edge-east-EN edge-north-NW edge-west-WS"/>
    </vehicle>
    <vehicle id="-flow-random-route-64d1b447-6738-4aed-9e2f-f22a723e5074-2024821468751959226-23-0.0" type="actor-car-8467147775937823299" depart="0.00" departLane="1" departPos="13.59" departSpeed="max" arrivalLane="0" arrivalPos="46.89">
        <route edges="edge-east-EN edge-north-NW edge-west-WS"/>
    </vehicle>
    <vehicle id="-flow-random-route-6f4027d8-a670-4f5a-a25a-c9638af6cf91-2024821468751959226-17-0.0" type="actor-car-8467147775937823299" depart="0.00" departLane="1" departPos="82.06" departSpeed="max" arrivalLane="1" arrivalPos="33.00">
        <route edges="gneE69 gneE71 edge-west-WS edge-south-SE edge-east-EN edge-north-NW edge-west-WS gneE60 gneE60.110 gneE61"/>
    </vehicle>
    <vehicle id="-flow-random-route-77290218-d8b2-42c2-bd56-ee4838d57a19-2024821468751959226-29-0.0" type="actor-car-8467147775937823299" depart="0.00" departLane="1" departPos="35.74" departSpeed="max" arrivalLane="1" arrivalPos="63.88">
        <route edges="edge-north-NW edge-west-WS"/>
    </vehicle>
    <vehicle id="-flow-random-route-7be5b4ce-d4a2-419e-b188-83f65570e1d3-2024821468751959226-18-0.0" type="actor-car-8467147775937823299" depart="0.00" departLane="0" departPos="3.31" departSpeed="max" arrivalLane="0" arrivalPos="70.01">
        <route edges="gneE69 gneE71 edge-west-WS"/>
    </vehicle>
    <vehicle id="-flow-random-route-833fbc8f-dc97-468e-ba48-b230bb854f20-2024821468751959226-12-0.0" type="actor-car-8467147775937823299" depart="0.00" departLane="0" departPos="101.18" departSpeed="max" arrivalLane="1" arrivalPos="3.53">
        <route edges="gneE78.64 gneE80 edge-east-EN edge-north-NW edge-west-WS gneE60 gneE60.110 gneE61 gneE62 gneE78"/>
    </vehicle>
    <vehicle id="-flow-random-route-883ddc15-379a-4075-a3a4-79bdac28dc81-2024821468751959226-4-0.0" type="actor-car-8467147775937823299" depart="0.00" departLane="1" departPos="93.57" departSpeed="max" arrivalLane="0" arrivalPos="3.26">
        <route edges="gneE61 gneE62 gneE78 gneE81 gneE60.110 gneE61 gneE62 gneE69 gneE71 edge-west-WS"/>
    </vehicle>
    <vehicle id="-flow-random-route-8abc7225-fa59-4685-9a0d-32b43bc0deb3-2024821468751959226-15-0.0" type="actor-car-8467147775937823299" depart="0.00" departLane="0" departPos="22.02" departSpeed="max" arrivalLane="1" arrivalPos="8.41">
        <route edges="gneE78 gneE81 gneE60.110"/>
    </vehicle>
    <vehicle id="-flow-random-route-9026dfc6-103f-415c-b051-29bf1f42d193-2024821468751959226-26-0.0" type="actor-car-8467147775937823299" depart="0.00" departLane="0" departPos="30.78" departSpeed="max" arrivalLane="0" arrivalPos="31.12">
        <route edges="gneE61 gneE62 gneE69 gneE71 edge-west-WS edge-south-SE"/>
    </vehicle>
    <vehicle id="-flow-random-route-9ef8d36e-df80-4fde-8c40-05f54603ee5a-2024821468751959226-13-0.0" type="actor-car-8467147775937823299" depart="0.00" departLane="1" departPos="3.56" departSpeed="max" arrivalLane="1" arrivalPos="60.25">
        <route edges="gneE80 edge-east-EN edge-north-NW edge-west-WS gneE60 gneE60.110 gneE61 gneE62 gneE78 gneE81"/>
    </vehicle>
    <vehicle id="-flow-random-route-afbf7827-daf5-4c2e-843d-daa69220e110-2024821468751959226-25-0.0" type="actor-car-8467147775937823299" depart="0.00" departLane="1" departPos="94.83" departSpeed="max" arrivalLane="1" arrivalPos="14.46">
        <route edges="gneE78.64 gneE80 edge-east-EN edge-north-NW edge-west-WS edge-south-SE"/>
    </vehicle>
    <vehicle id="-flow-random-route-b1b4b26d-a741-4c59-83ae-f1858601c5d1-2024821468751959226-0-0.0" type="actor-car-8467147775937823299" depart="0.00" departLane="1" departPos="42.04" departSpeed="max" arrivalLane="1" arrivalPos="26.39">
        <route edges="edge-north-NW edge-west-WS gneE60"/>
    </vehicle>
    <vehicle id="-flow-random-route-b99fb69b-cd66-4560-82f9-43e5c7ca34ff-2024821468751959226-27-0.0" type="actor-car-8467147775937823299" depart="0.00" departLane="1" departPos="131.86" departSpeed="max" arrivalLane="0" arrivalPos="24.29">
        <route edges="gneE69 gneE71 edge-west-WS edge-south-SE edge-east-EN edge-north-NW"/>
    </vehicle>
    <vehicle id="-flow-random-route-ceacbef7-dcd2-43a0-916d-7d541b691ec6-2024821468751959226-14-0.0" type="actor-car-8467147775937823299" depart="0.00" departLane="0" departPos="30.38" departSpeed="max" arrivalLane="0" arrivalPos="43.00">
        <route edges="gneE62 gneE78 gneE78.64 gneE80 edge-east-EN edge-north-NW"/>
    </vehicle>
    <vehicle id="-flow-random-route-d17e9b9a-297f-4911-ade9-0c53d2d24989-2024821468751959226-11-0.0" type="actor-car-8467147775937823299" depart="0.00" departLane="1" departPos="14.91" departSpeed="max" arrivalLane="1" arrivalPos="77.33">
        <route edges="edge-west-WS edge-south-SE edge-east-EN edge-north-NW edge-west-WS edge-south-SE edge-east-EN edge-north-NW edge-west-WS gneE60"/>
    </vehicle>
    <vehicle id="-flow-random-route-dd0170ac-b6d7-4eae-9f2a-a80ff31654a1-2024821468751959226-24-0.0" type="actor-car-8467147775937823299" depart="0.00" departLane="0" departPos="52.41" departSpeed="max" arrivalLane="1" arrivalPos="40.72">
        <route edges="edge-west-WS gneE60 gneE60.110"/>
    </vehicle>
    <vehicle id="-flow-random-route-e1b2ebc3-f34e-4d6f-b09d-d929cd7324f1-2024821468751959226-21-0.0" type="actor-car-8467147775937823299" depart="0.00" departLane="1" departPos="33.08" departSpeed="max" arrivalLane="1" arrivalPos="74.45">
        <route edges="edge-west-WS edge-south-SE edge-east-EN edge-north-NW edge-west-WS edge-south-SE edge-east-EN edge-north-NW edge-west-WS gneE60"/>
    </vehicle>
    <vehicle id="-flow-random-route-f122ded8-acf5-4876-a066-fa210d8f6b95-2024821468751959226-8-0.0" type="actor-car-8467147775937823299" depart="0.00" departLane="0" departPos="3.27" departSpeed="max" arrivalLane="0" arrivalPos="41.39">
        <route edges="gneE80 edge-east-EN edge-north-NW edge-west-WS gneE60 gneE60.110 gneE61 gneE62 gneE69 gneE71"/>
    </vehicle>
    <vehicle id="-flow-random-route-f5825113-5abb-43cd-9c53-216f0e7177a7-2024821468751959226-1-0.0" type="actor-car-8467147775937823299" depart="0.00" departLane="0" departPos="28.40" departSpeed="max" arrivalLane="1" arrivalPos="28.54">
        <route edges="gneE78 gneE78.64 gneE80 edge-east-EN edge-north-NW edge-west-WS"/>
    </vehicle>
    <vehicle id="-flow-random-route-033aa9b9-a187-4290-bab5-249a6604111f-2024821468751959226-16-0.1" type="actor-car-8467147775937823299" depart="120.00" departLane="0" departPos="13.06" departSpeed="max" arrivalLane="1" arrivalPos="20.19">
        <route edges="edge-south-SE edge-east-EN edge-north-NW edge-west-WS gneE60 gneE60.110 gneE61 gneE62 gneE69 gneE71"/>
    </vehicle>
    <vehicle id="-flow-random-route-075c2228-9fc9-4b13-aed9-a351fd945a2a-2024821468751959226-10-0.1" type="actor-car-8467147775937823299" depart="120.00" departLane="1" departPos="49.46" departSpeed="max" arrivalLane="0" arrivalPos="11.60">
        <route edges="gneE61 gneE62 gneE78 gneE78.64 gneE80 edge-east-EN edge-north-NW edge-west-WS gneE60 gneE60.110"/>
    </vehicle>
    <vehicle id="-flow-random-route-0e646390-ddff-4f82-be05-bb4d4b50c9a6-2024821468751959226-2-0.1" type="actor-car-8467147775937823299" depart="120.00" departLane="0" departPos="9.90" departSpeed="max" arrivalLane="1" arrivalPos="15.45">
        <route edges="gneE60.110 gneE61 gneE62 gneE78 gneE78.64 gneE80 edge-east-EN edge-north-NW edge-west-WS gneE60"/>
    </vehicle>
    <vehicle id="-flow-random-route-11da50c5-dc21-4d9d-ae08-f18dee089904-2024821468751959226-20-0.1" type="actor-car-8467147775937823299" depart="120.00" departLane="0" departPos="62.36" departSpeed="max" arrivalLane="1" arrivalPos="71.78">
        <route edges="gneE61 gneE62 gneE69"/>
    </vehicle>
    <vehicle id="-flow-random-route-4183ba5e-00b7-4adb-8eea-032fd8186262-2024821468751959226-22-0.1" type="actor-car-8467147775937823299" depart="120.00" departLane="0" departPos="1.17" departSpeed="max" arrivalLane="0" arrivalPos="16.29">
        <route edges="gneE61 gneE62 gneE78 gneE81 gneE60.110 gneE61 gneE62 gneE69 gneE71 edge-west-WS"/>
    </vehicle>
    <vehicle id="-flow-random-route-455ead8e-7abb-4e49-b950-7a9665aa328e-2024821468751959226-3-0.1" type="actor-car-8467147775937823299" depart="120.00" departLane="0" departPos="73.53" departSpeed="max" arrivalLane="0" arrivalPos="12.51">
        <route edges="gneE71 edge-west-WS"/>
    </vehicle>
    <vehicle id="-flow-random-route-4c5e19b5-7156-4100-93cd-d7f888fe908c-2024821468751959226-7-0.1" type="actor-car-8467147775937823299" depart="120.00" departLane="0" departPos="63.78" departSpeed="max" arrivalLane="0" arrivalPos="39.79">
        <route edges="gneE71 edge-west-WS edge-south-SE edge-east-EN edge-north-NW edge-west-WS gneE60 gneE60.110 gneE61 gneE62"/>
    </vehicle>
    <vehicle id="-flow-random-route-4d513657-7d7d-4523-afee-8f9634765144-2024821468751959226-9-0.1" type="actor-car-8467147775937823299" depart="120.00" departLane="0" departPos="55.69" departSpeed="max" arrivalLane="0" arrivalPos="90.96">
        <route edges="gneE60 gneE60.110 gneE61"/>
    </vehicle>
    <vehicle id="-flow-random-route-5308d664-5560-4b2a-a4cb-f4ffcbc41f4f-2024821468751959226-6-0.1" type="actor-car-8467147775937823299" depart="120.00" departLane="0" departPos="66.09" departSpeed="max" arrivalLane="0" arrivalPos="37.10">
        <route edges="edge-west-WS gneE60 gneE60.110"/>
    </vehicle>
    <vehicle id="-flow-random-route-534a9911-7f14-4a00-968a-dad8ec82867d-2024821468751959226-5-0.1" type="actor-car-8467147775937823299" depart="120.00" departLane="0" departPos="78.10" departSpeed="max" arrivalLane="0" arrivalPos="70.54">
        <route edges="gneE60 gneE60.110 gneE61 gneE62 gneE78 gneE81 gneE60.110 gneE61 gneE62 gneE69"/>
    </vehicle>
    <vehicle id="-flow-random-route-54d4d7a0-0c12-4b3b-b5e1-64ccaa667854-2024821468751959226-28-0.1" type="actor-car-8467147775937823299" depart="120.00" departLane="1" departPos="12.36" departSpeed="max" arrivalLane="1" arrivalPos="32.63">
        <route edges="gneE71 edge-west-WS gneE60 gneE60.110 gneE61 gneE62 gneE78 gneE78.64 gneE80 edge-east-EN"/>
    </vehicle>
    <vehicle id="-flow-random-route-612be3fa-af0a-4a2d-9685-0cb6e22582f2-2024821468751959226-19-0.1" type="actor-car-8467147775937823299" depart="120.00" departLane="0" departPos="30.31" departSpeed="max" arrivalLane="1" arrivalPos="12.71">
        <route edges="gneE78 gneE78.64 gneE80 edge-east-EN edge-north-NW edge-west-WS"/>
    </vehicle>
    <vehicle id="-flow-random-route-64d1b447-6738-4aed-9e2f-f22a723e5074-2024821468751959226-23-0.1" type="actor-car-8467147775937823299" depart="120.00" departLane="1" departPos="13.59" departSpeed="max" arrivalLane="0" arrivalPos="46.89">
        <route edges="edge-east-EN edge-north-NW edge-west-WS"/>
    </vehicle>
    <vehicle id="-flow-random-route-6f4027d8-a670-4f5a-a25a-c9638af6cf91-2024821468751959226-17-0.1" type="actor-car-8467147775937823299" depart="120.00" departLane="1" departPos="82.06" departSpeed="max" arrivalLane="1" arrivalPos="33.00">
        <route edges="gneE69 gneE71 edge-west-WS edge-south-SE edge-east-EN edge-north-NW edge-west-WS gneE60 gneE60.110 gneE61"/>
    </vehicle>
    <vehicle id="-flow-random-route-77290218-d8b2-42c2-bd56-ee4838d57a19-2024821468751959226-29-0.1" type="actor-car-8467147775937823299" depart="120.00" departLane="1" departPos="35.74" departSpeed="max" arrivalLane="1" arrivalPos="63.88">
        <route edges="edge-north-NW edge-west-WS"/>
    </vehicle>
    <vehicle id="-flow-random-route-7be5b4ce-d4a2-419e-b188-83f65570e1d3-2024821468751959226-18-0.1" type="actor-car-8467147775937823299" depart="120.00" departLane="0" departPos="3.31" departSpeed="max" arrivalLane="0" arrivalPos="70.01">
        <route edges="gneE69 gneE71 edge-west-WS"/>
    </vehicle>
    <vehicle id="-flow-random-route-833fbc8f-dc97-468e-ba48-b230bb854f20-2024821468751959226-12-0.1" type="actor-car-8467147775937823299" depart="120.00" departLane="0" departPos="101.18" departSpeed="max" arrivalLane="1" arrivalPos="3.53">
        <route edges="gneE78.64 gneE80 edge-east-EN edge-north-NW edge-west-WS gneE60 gneE60.110 gneE61 gneE62 gneE78"/>
    </vehicle>
    <vehicle id="-flow-random-route-883ddc15-379a-4075-a3a4-79bdac28dc81-2024821468751959226-4-0.1" type="actor-car-8467147775937823299" depart="120.00" departLane="1" departPos="93.57" departSpeed="max" arrivalLane="0" arrivalPos="3.26">
        <route edges="gneE61 gneE62 gneE78 gneE81 gneE60.110 gneE61 gneE62 gneE69 gneE71 edge-west-WS"/>
    </vehicle>
    <vehicle id="-flow-random-route-8abc7225-fa59-4685-9a0d-32b43bc0deb3-2024821468751959226-15-0.1" type="actor-car-8467147775937823299" depart="120.00" departLane="0" departPos="22.02" departSpeed="max" arrivalLane="1" arrivalPos="8.41">
        <route edges="gneE78 gneE81 gneE60.110"/>
    </vehicle>
    <vehicle id="-flow-random-route-9026dfc6-103f-415c-b051-29bf1f42d193-2024821468751959226-26-0.1" type="actor-car-8467147775937823299" depart="120.00" departLane="0" departPos="30.78" departSpeed="max" arrivalLane="0" arrivalPos="31.12">
        <route edges="gneE61 gneE62 gneE69 gneE71 edge-west-WS edge-south-SE"/>
    </vehicle>
    <vehicle id="-flow-random-route-9ef8d36e-df80-4fde-8c40-05f54603ee5a-2024821468751959226-13-0.1" type="actor-car-8467147775937823299" depart="120.00" departLane="1" departPos="3.56" departSpeed="max" arrivalLane="1" arrivalPos="60.25">
        <route edges="gneE80 edge-east-EN edge-north-NW edge-west-WS gneE60 gneE60.110 gneE61 gneE62 gneE78 gneE81"/>
    </vehicle>
    <vehicle id="-flow-random-route-afbf7827-daf5-4c2e-843d-daa69220e110-2024821468751959226-25-0.1" type="actor-car-8467147775937823299" depart="120.00" departLane="1" departPos="94.83" departSpeed="max" arrivalLane="1" arrivalPos="14.46">
        <route edges="gneE78.64 gneE80 edge-east-EN edge-north-NW edge-west-WS edge-south-SE"/>
    </vehicle>
    <vehicle id="-flow-random-route-b1b4b26d-a741-4c59-83ae-f1858601c5d1-2024821468751959226-0-0.1" type="actor-car-8467147775937823299" depart="120.00" departLane="1" departPos="42.04" departSpeed="max" arrivalLane="1" arrivalPos="26.39">
        <route edges="edge-north-NW edge-west-WS gneE60"/>
    </vehicle>
    <vehicle id="-flow-random-route-b99fb69b-cd66-4560-82f9-43e5c7ca34ff-2024821468751959226-27-0.1" type="actor-car-8467147775937823299" depart="120.00" departLane="1" departPos="131.86" departSpeed="max" arrivalLane="0" arrivalPos="24.29">
        <route edges="gneE69 gneE71 edge-west-WS edge-south-SE edge-east-EN edge-north-NW"/>
    </vehicle>
    <vehicle id="-flow-random-route-ceacbef7-dcd2-43a0-916d-7d541b691ec6-2024821468751959226-14-0.1" type="actor-car-8467147775937823299" depart="120.00" departLane="0" departPos="30.38" departSpeed="max" arrivalLane="0" arrivalPos="43.00">
        <route edges="gneE62 gneE78 gneE78.64 gneE80 edge-east-EN edge-north-NW"/>
    </vehicle>
    <vehicle id="-flow-random-route-d17e9b9a-297f-4911-ade9-0c53d2d24989-2024821468751959226-11-0.1" type="actor-car-8467147775937823299" depart="120.00" departLane="1" departPos="14.91" departSpeed="max" arrivalLane="1" arrivalPos="77.33">
        <route edges="edge-west-WS edge-south-SE edge-east-EN edge-north-NW edge-west-WS edge-south-SE edge-east-EN edge-north-NW edge-west-WS gneE60"/>
    </vehicle>
    <vehicle id="-flow-random-route-dd0170ac-b6d7-4eae-9f2a-a80ff31654a1-2024821468751959226-24-0.1" type="actor-car-8467147775937823299" depart="120.00" departLane="0" departPos="52.41" departSpeed="max" arrivalLane="1" arrivalPos="40.72">
        <route edges="edge-west-WS gneE60 gneE60.110"/>
    </vehicle>
    <vehicle id="-flow-random-route-e1b2ebc3-f34e-4d6f-b09d-d929cd7324f1-2024821468751959226-21-0.1" type="actor-car-8467147775937823299" depart="120.00" departLane="1" departPos="33.08" departSpeed="max" arrivalLane="1" arrivalPos="74.45">
        <route edges="edge-west-WS edge-south-SE edge-east-EN edge-north-NW edge-west-WS edge-south-SE edge-east-EN edge-north-NW edge-west-WS gneE60"/>
    </vehicle>
    <vehicle id="-flow-random-route-f122ded8-acf5-4876-a066-fa210d8f6b95-2024821468751959226-8-0.1" type="actor-car-8467147775937823299" depart="120.00" departLane="0" departPos="3.27" departSpeed="max" arrivalLane="0" arrivalPos="41.39">
        <route edges="gneE80 edge-east-EN edge-north-NW edge-west-WS gneE60 gneE60.110 gneE61 gneE62 gneE69 gneE71"/>
    </vehicle>
    <vehicle id="-flow-random-route-f5825113-5abb-43cd-9c53-216f0e7177a7-2024821468751959226-1-0.1" type="actor-car-8467147775937823299" depart="120.00" departLane="0" departPos="28.40" departSpeed="max" arrivalLane="1" arrivalPos="28.54">
        <route edges="gneE78 gneE78.64 gneE80 edge-east-EN edge-north-NW edge-west-WS"/>
    </vehicle>
    <vehicle id="-flow-random-route-033aa9b9-a187-4290-bab5-249a6604111f-2024821468751959226-16-0.2" type="actor-car-8467147775937823299" depart="240.00" departLane="0" departPos="13.06" departSpeed="max" arrivalLane="1" arrivalPos="20.19">
        <route edges="edge-south-SE edge-east-EN edge-north-NW edge-west-WS gneE60 gneE60.110 gneE61 gneE62 gneE69 gneE71"/>
    </vehicle>
    <vehicle id="-flow-random-route-075c2228-9fc9-4b13-aed9-a351fd945a2a-2024821468751959226-10-0.2" type="actor-car-8467147775937823299" depart="240.00" departLane="1" departPos="49.46" departSpeed="max" arrivalLane="0" arrivalPos="11.60">
        <route edges="gneE61 gneE62 gneE78 gneE78.64 gneE80 edge-east-EN edge-north-NW edge-west-WS gneE60 gneE60.110"/>
    </vehicle>
    <vehicle id="-flow-random-route-0e646390-ddff-4f82-be05-bb4d4b50c9a6-2024821468751959226-2-0.2" type="actor-car-8467147775937823299" depart="240.00" departLane="0" departPos="9.90" departSpeed="max" arrivalLane="1" arrivalPos="15.45">
        <route edges="gneE60.110 gneE61 gneE62 gneE78 gneE78.64 gneE80 edge-east-EN edge-north-NW edge-west-WS gneE60"/>
    </vehicle>
    <vehicle id="-flow-random-route-11da50c5-dc21-4d9d-ae08-f18dee089904-2024821468751959226-20-0.2" type="actor-car-8467147775937823299" depart="240.00" departLane="0" departPos="62.36" departSpeed="max" arrivalLane="1" arrivalPos="71.78">
        <route edges="gneE61 gneE62 gneE69"/>
    </vehicle>
    <vehicle id="-flow-random-route-4183ba5e-00b7-4adb-8eea-032fd8186262-2024821468751959226-22-0.2" type="actor-car-8467147775937823299" depart="240.00" departLane="0" departPos="1.17" departSpeed="max" arrivalLane="0" arrivalPos="16.29">
        <route edges="gneE61 gneE62 gneE78 gneE81 gneE60.110 gneE61 gneE62 gneE69 gneE71 edge-west-WS"/>
    </vehicle>
    <vehicle id="-flow-random-route-455ead8e-7abb-4e49-b950-7a9665aa328e-2024821468751959226-3-0.2" type="actor-car-8467147775937823299" depart="240.00" departLane="0" departPos="73.53" departSpeed="max" arrivalLane="0" arrivalPos="12.51">
        <route edges="gneE71 edge-west-WS"/>
    </vehicle>
    <vehicle id="-flow-random-route-4c5e19b5-7156-4100-93cd-d7f888fe908c-2024821468751959226-7-0.2" type="actor-car-8467147775937823299" depart="240.00" departLane="0" departPos="63.78" departSpeed="max" arrivalLane="0" arrivalPos="39.79">
        <route edges="gneE71 edge-west-WS edge-south-SE edge-east-EN edge-north-NW edge-west-WS gneE60 gneE60.110 gneE61 gneE62"/>
    </vehicle>
    <vehicle id="-flow-random-route-4d513657-7d7d-4523-afee-8f9634765144-2024821468751959226-9-0.2" type="actor-car-8467147775937823299" depart="240.00" departLane="0" departPos="55.69" departSpeed="max" arrivalLane="0" arrivalPos="90.96">
        <route edges="gneE60 gneE60.110 gneE61"/>
    </vehicle>
    <vehicle id="-flow-random-route-5308d664-5560-4b2a-a4cb-f4ffcbc41f4f-2024821468751959226-6-0.2" type="actor-car-8467147775937823299" depart="240.00" departLane="0" departPos="66.09" departSpeed="max" arrivalLane="0" arrivalPos="37.10">
        <route edges="edge-west-WS gneE60 gneE60.110"/>
    </vehicle>
    <vehicle id="-flow-random-route-534a9911-7f14-4a00-968a-dad8ec82867d-2024821468751959226-5-0.2" type="actor-car-8467147775937823299" depart="240.00" departLane="0" departPos="78.10" departSpeed="max" arrivalLane="0" arrivalPos="70.54">
        <route edges="gneE60 gneE60.110 gneE61 gneE62 gneE78 gneE81 gneE60.110 gneE61 gneE62 gneE69"/>
    </vehicle>
    <vehicle id="-flow-random-route-54d4d7a0-0c12-4b3b-b5e1-64ccaa667854-2024821468751959226-28-0.2" type="actor-car-8467147775937823299" depart="240.00" departLane="1" departPos="12.36" departSpeed="max" arrivalLane="1" arrivalPos="32.63">
        <route edges="gneE71 edge-west-WS gneE60 gneE60.110 gneE61 gneE62 gneE78 gneE78.64 gneE80 edge-east-EN"/>
    </vehicle>
    <vehicle id="-flow-random-route-612be3fa-af0a-4a2d-9685-0cb6e22582f2-2024821468751959226-19-0.2" type="actor-car-8467147775937823299" depart="240.00" departLane="0" departPos="30.31" departSpeed="max" arrivalLane="1" arrivalPos="12.71">
        <route edges="gneE78 gneE78.64 gneE80 edge-east-EN edge-north-NW edge-west-WS"/>
    </vehicle>
    <vehicle id="-flow-random-route-64d1b447-6738-4aed-9e2f-f22a723e5074-2024821468751959226-23-0.2" type="actor-car-8467147775937823299" depart="240.00" departLane="1" departPos="13.59" departSpeed="max" arrivalLane="0" arrivalPos="46.89">
        <route edges="edge-east-EN edge-north-NW edge-west-WS"/>
    </vehicle>
    <vehicle id="-flow-random-route-6f4027d8-a670-4f5a-a25a-c9638af6cf91-2024821468751959226-17-0.2" type="actor-car-8467147775937823299" depart="240.00" departLane="1" departPos="82.06" departSpeed="max" arrivalLane="1" arrivalPos="33.00">
        <route edges="gneE69 gneE71 edge-west-WS edge-south-SE edge-east-EN edge-north-NW edge-west-WS gneE60 gneE60.110 gneE61"/>
    </vehicle>
    <vehicle id="-flow-random-route-77290218-d8b2-42c2-bd56-ee4838d57a19-2024821468751959226-29-0.2" type="actor-car-8467147775937823299" depart="240.00" departLane="1" departPos="35.74" departSpeed="max" arrivalLane="1" arrivalPos="63.88">
        <route edges="edge-north-NW edge-west-WS"/>
    </vehicle>
    <vehicle id="-flow-random-route-7be5b4ce-d4a2-419e-b188-83f65570e1d3-2024821468751959226-18-0.2" type="actor-car-8467147775937823299" depart="240.00" departLane="0" departPos="3.31" departSpeed="max" arrivalLane="0" arrivalPos="70.01">
        <route edges="gneE69 gneE71 edge-west-WS"/>
    </vehicle>
    <vehicle id="-flow-random-route-833fbc8f-dc97-468e-ba48-b230bb854f20-2024821468751959226-12-0.2" type="actor-car-8467147775937823299" depart="240.00" departLane="0" departPos="101.18" departSpeed="max" arrivalLane="1" arrivalPos="3.53">
        <route edges="gneE78.64 gneE80 edge-east-EN edge-north-NW edge-west-WS gneE60 gneE60.110 gneE61 gneE62 gneE78"/>
    </vehicle>
    <vehicle id="-flow-random-route-883ddc15-379a-4075-a3a4-79bdac28dc81-2024821468751959226-4-0.2" type="actor-car-8467147775937823299" depart="240.00" departLane="1" departPos="93.57" departSpeed="max" arrivalLane="0" arrivalPos="3.26">
        <route edges="gneE61 gneE62 gneE78 gneE81 gneE60.110 gneE61 gneE62 gneE69 gneE71 edge-west-WS"/>
    </vehicle>
    <vehicle id="-flow-random-route-8abc7225-fa59-4685-9a0d-32b43bc0deb3-2024821468751959226-15-0.2" type="actor-car-8467147775937823299" depart="240.00" departLane="0" departPos="22.02" departSpeed="max" arrivalLane="1" arrivalPos="8.41">
        <route edges="gneE78 gneE81 gneE60.110"/>
    </vehicle>
    <vehicle id="-flow-random-route-9026dfc6-103f-415c-b051-29bf1f42d193-2024821468751959226-26-0.2" type="actor-car-8467147775937823299" depart="240.00" departLane="0" departPos="30.78" departSpeed="max" arrivalLane="0" arrivalPos="31.12">
        <route edges="gneE61 gneE62 gneE69 gneE71 edge-west-WS edge-south-SE"/>
    </vehicle>
    <vehicle id="-flow-random-route-9ef8d36e-df80-4fde-8c40-05f54603ee5a-2024821468751959226-13-0.2" type="actor-car-8467147775937823299" depart="240.00" departLane="1" departPos="3.56" departSpeed="max" arrivalLane="1" arrivalPos="60.25">
        <route edges="gneE80 edge-east-EN edge-north-NW edge-west-WS gneE60 gneE60.110 gneE61 gneE62 gneE78 gneE81"/>
    </vehicle>
    <vehicle id="-flow-random-route-afbf7827-daf5-4c2e-843d-daa69220e110-2024821468751959226-25-0.2" type="actor-car-8467147775937823299" depart="240.00" departLane="1" departPos="94.83" departSpeed="max" arrivalLane="1" arrivalPos="14.46">
        <route edges="gneE78.64 gneE80 edge-east-EN edge-north-NW edge-west-WS edge-south-SE"/>
    </vehicle>