<?xml version="1.0" encoding="UTF-8"?>

<!-- generated on Sun Oct  4 03:10:15 2020 by Eclipse SUMO duarouter Version 1.6.0
<configuration xmlns:xsi="http://www.w3.org/2001/XMLSchema-instance" xsi:noNamespaceSchemaLocation="http://sumo.dlr.de/xsd/duarouterConfiguration.xsd">

    <input>
        <net-file value="/root/workspace/dataset_public/roundabout_loop/roundabout_b/map.net.xml"/>
        <route-files value="/tmp/tmpd2ek6s8a/trips.trips.xml"/>
    </input>

    <output>
        <output-file value="/root/workspace/dataset_public/roundabout_loop/roundabout_b/traffic/28_patient_car_0.5_impatient_car_0.5.rou.xml"/>
        <alternatives-output value="/root/workspace/dataset_public/roundabout_loop/roundabout_b/traffic/28_patient_car_0.5_impatient_car_0.5.rou.alt.xml"/>
    </output>

    <processing>
        <unsorted-input value="true"/>
        <repair value="true"/>
    </processing>

    <report>
        <error-log value="/tmp/smarts/_duarouter_routing/traffic/28_patient_car_0.5_impatient_car_0.5.log"/>
        <no-step-log value="true"/>
    </report>

    <random_number>
        <seed value="777"/>
    </random_number>

</configuration>
-->

<routes xmlns:xsi="http://www.w3.org/2001/XMLSchema-instance" xsi:noNamespaceSchemaLocation="http://sumo.dlr.de/xsd/routes_file.xsd">
    <vType id="actor-impatient_car--5651090088601457430" minGap="2.50" speedFactor="normc(0.50,0.20,0.20,2.00)" vClass="passenger" impatience="0.50" lcCooperative="0.5" lcImpatience="0" jmDriveAfterYellowTime="1.0" accel="2.6" decel="4.5" sigma="0.5"/>
    <vehicle id="-flow-random-route-277fdf7b-2b4e-4d4f-9317-2865515847a0--7692535896029086687-12-0.0" type="actor-impatient_car--5651090088601457430" depart="0.00" departLane="1" departPos="41.55" departSpeed="max" arrivalLane="0" arrivalPos="33.95">
        <route edges="gneE42 gneE51 -gneE48 -gneE37 -gneE36 edge-north-NW"/>
    </vehicle>
    <vType id="actor-patient_car--1549713596754082481" minGap="2.50" speedFactor="normc(0.50,0.20,0.20,2.00)" vClass="passenger" impatience="1.00" lcCooperative="0.25" lcImpatience="1" jmDriveAfterYellowTime="1.0" jmDriveAfterRedTime="1.5" accel="2.6" decel="4.5" sigma="0.5"/>
    <vehicle id="-flow-random-route-277fdf7b-2b4e-4d4f-9317-2865515847a0--7692535896029086687-12-1.0" type="actor-patient_car--1549713596754082481" depart="0.00" departLane="1" departPos="41.55" departSpeed="max" arrivalLane="0" arrivalPos="33.95">
        <route edges="gneE42 gneE51 -gneE48 -gneE37 -gneE36 edge-north-NW"/>
    </vehicle>
    <vehicle id="-flow-random-route-2a4c0462-16aa-4f90-9c23-8cfbf84a5a22--7692535896029086687-5-0.0" type="actor-impatient_car--5651090088601457430" depart="0.00" departLane="0" departPos="62.07" departSpeed="max" arrivalLane="0" arrivalPos="87.68">
        <route edges="gneE14 gneE13 edge-south-SE edge-east-EN edge-north-NW edge-west-WS edge-south-SE edge-east-EN gneE36 gneE37"/>
    </vehicle>
    <vehicle id="-flow-random-route-2a4c0462-16aa-4f90-9c23-8cfbf84a5a22--7692535896029086687-5-1.0" type="actor-patient_car--1549713596754082481" depart="0.00" departLane="0" departPos="62.07" departSpeed="max" arrivalLane="0" arrivalPos="87.68">
        <route edges="gneE14 gneE13 edge-south-SE edge-east-EN edge-north-NW edge-west-WS edge-south-SE edge-east-EN gneE36 gneE37"/>
    </vehicle>
    <vehicle id="-flow-random-route-4175d1ac-bf61-44fe-a5c5-e1671da6cf60--7692535896029086687-13-0.0" type="actor-impatient_car--5651090088601457430" depart="0.00" departLane="1" departPos="26.78" departSpeed="max" arrivalLane="0" arrivalPos="8.22">
        <route edges="edge-south-SE edge-east-EN edge-north-NW edge-west-WS edge-south-SE edge-east-EN edge-north-NW gneE41 gneE42 gneE51"/>
    </vehicle>
    <vehicle id="-flow-random-route-4175d1ac-bf61-44fe-a5c5-e1671da6cf60--7692535896029086687-13-1.0" type="actor-patient_car--1549713596754082481" depart="0.00" departLane="1" departPos="26.78" departSpeed="max" arrivalLane="0" arrivalPos="8.22">
        <route edges="edge-south-SE edge-east-EN edge-north-NW edge-west-WS edge-south-SE edge-east-EN edge-north-NW gneE41 gneE42 gneE51"/>
    </vehicle>
    <vehicle id="-flow-random-route-462d60c2-0445-4d0b-a903-8b6c35806dec--7692535896029086687-2-0.0" type="actor-impatient_car--5651090088601457430" depart="0.00" departLane="0" departPos="11.29" departSpeed="max" arrivalLane="0" arrivalPos="0.16">
        <route edges="gneE42 gneE51 -gneE48 -gneE37 -gneE36 edge-north-NW edge-west-WS edge-south-SE edge-east-EN gneE36"/>
    </vehicle>
    <vehicle id="-flow-random-route-462d60c2-0445-4d0b-a903-8b6c35806dec--7692535896029086687-2-1.0" type="actor-patient_car--1549713596754082481" depart="0.00" departLane="0" departPos="11.29" departSpeed="max" arrivalLane="0" arrivalPos="0.16">
        <route edges="gneE42 gneE51 -gneE48 -gneE37 -gneE36 edge-north-NW edge-west-WS edge-south-SE edge-east-EN gneE36"/>
    </vehicle>
    <vehicle id="-flow-random-route-4c3b1241-4825-42d2-a4f9-d74f1c6100f1--7692535896029086687-1-0.0" type="actor-impatient_car--5651090088601457430" depart="0.00" departLane="0" departPos="61.54" departSpeed="max" arrivalLane="1" arrivalPos="84.63">
        <route edges="gneE37 gneE48 gneE53 gneE14 gneE13 edge-south-SE edge-east-EN edge-north-NW gneE41 gneE42"/>
    </vehicle>
    <vehicle id="-flow-random-route-4c3b1241-4825-42d2-a4f9-d74f1c6100f1--7692535896029086687-1-1.0" type="actor-patient_car--1549713596754082481" depart="0.00" departLane="0" departPos="61.54" departSpeed="max" arrivalLane="1" arrivalPos="84.63">
        <route edges="gneE37 gneE48 gneE53 gneE14 gneE13 edge-south-SE edge-east-EN edge-north-NW gneE41 gneE42"/>
    </vehicle>
    <vehicle id="-flow-random-route-63c414ce-0623-4952-a8e6-52dcc791b9c7--7692535896029086687-0-0.0" type="actor-impatient_car--5651090088601457430" depart="0.00" departLane="0" departPos="48.77" departSpeed="max" arrivalLane="0" arrivalPos="5.92">
        <route edges="edge-north-NW edge-west-WS edge-south-SE edge-east-EN gneE36 gneE37 gneE48 gneE53 gneE14 gneE13"/>
    </vehicle>
    <vehicle id="-flow-random-route-63c414ce-0623-4952-a8e6-52dcc791b9c7--7692535896029086687-0-1.0" type="actor-patient_car--1549713596754082481" depart="0.00" departLane="0" departPos="48.77" departSpeed="max" arrivalLane="0" arrivalPos="5.92">
        <route edges="edge-north-NW edge-west-WS edge-south-SE edge-east-EN gneE36 gneE37 gneE48 gneE53 gneE14 gneE13"/>
    </vehicle>
    <vehicle id="-flow-random-route-9760e315-6d29-438e-bad2-fe8bb1381e83--7692535896029086687-11-0.0" type="actor-impatient_car--5651090088601457430" depart="0.00" departLane="1" departPos="2.71" departSpeed="max" arrivalLane="1" arrivalPos="0.67">
        <route edges="gneE41 gneE42 gneE51 -gneE48 -gneE37 -gneE36 edge-north-NW edge-west-WS edge-south-SE edge-east-EN"/>
    </vehicle>
    <vehicle id="-flow-random-route-9760e315-6d29-438e-bad2-fe8bb1381e83--7692535896029086687-11-1.0" type="actor-patient_car--1549713596754082481" depart="0.00" departLane="1" departPos="2.71" departSpeed="max" arrivalLane="1" arrivalPos="0.67">
        <route edges="gneE41 gneE42 gneE51 -gneE48 -gneE37 -gneE36 edge-north-NW edge-west-WS edge-south-SE edge-east-EN"/>
    </vehicle>
    <vehicle id="-flow-random-route-a2c81e53-7b44-4361-998a-ce65dbb2b726--7692535896029086687-7-0.0" type="actor-impatient_car--5651090088601457430" depart="0.00" departLane="1" departPos="10.04" departSpeed="max" arrivalLane="1" arrivalPos="57.16">
        <route edges="gneE53 gneE14"/>
    </vehicle>
    <vehicle id="-flow-random-route-a2c81e53-7b44-4361-998a-ce65dbb2b726--7692535896029086687-7-1.0" type="actor-patient_car--1549713596754082481" depart="0.00" departLane="1" departPos="10.04" departSpeed="max" arrivalLane="1" arrivalPos="57.16">
        <route edges="gneE53 gneE14"/>
    </vehicle>
    <vehicle id="-flow-random-route-a8c4471f-52a7-4fa8-be0b-7dfdeff1a461--7692535896029086687-10-0.0" type="actor-impatient_car--5651090088601457430" depart="0.00" departLane="0" departPos="52.09" departSpeed="max" arrivalLane="0" arrivalPos="11.17">
        <route edges="gneE37 gneE48"/>
    </vehicle>
    <vehicle id="-flow-random-route-a8c4471f-52a7-4fa8-be0b-7dfdeff1a461--7692535896029086687-10-1.0" type="actor-patient_car--1549713596754082481" depart="0.00" departLane="0" departPos="52.09" departSpeed="max" arrivalLane="0" arrivalPos="11.17">
        <route edges="gneE37 gneE48"/>
    </vehicle>
    <vehicle id="-flow-random-route-bde11511-b851-4654-bef9-fcb8312d8d48--7692535896029086687-3-0.0" type="actor-impatient_car--5651090088601457430" depart="0.00" departLane="0" departPos="32.95" departSpeed="max" arrivalLane="0" arrivalPos="51.79">
        <route edges="edge-west-WS edge-south-SE edge-east-EN edge-north-NW edge-west-WS edge-south-SE edge-east-EN gneE36 gneE37 gneE48"/>
    </vehicle>
    <vehicle id="-flow-random-route-bde11511-b851-4654-bef9-fcb8312d8d48--7692535896029086687-3-1.0" type="actor-patient_car--1549713596754082481" depart="0.00" departLane="0" departPos="32.95" departSpeed="max" arrivalLane="0" arrivalPos="51.79">
        <route edges="edge-west-WS edge-south-SE edge-east-EN edge-north-NW edge-west-WS edge-south-SE edge-east-EN gneE36 gneE37 gneE48"/>
    </vehicle>
    <vehicle id="-flow-random-route-c8f1d1b3-5f45-4f25-9c95-4544ea75f1e6--7692535896029086687-6-0.0" type="actor-impatient_car--5651090088601457430" depart="0.00" departLane="0" departPos="8.01" departSpeed="max" arrivalLane="0" arrivalPos="52.26">
        <route edges="gneE41 gneE42 gneE51 -gneE48 -gneE37 -gneE36 edge-north-NW edge-west-WS edge-south-SE edge-east-EN"/>
    </vehicle>
    <vehicle id="-flow-random-route-c8f1d1b3-5f45-4f25-9c95-4544ea75f1e6--7692535896029086687-6-1.0" type="actor-patient_car--1549713596754082481" depart="0.00" departLane="0" departPos="8.01" departSpeed="max" arrivalLane="0" arrivalPos="52.26">
        <route edges="gneE41 gneE42 gneE51 -gneE48 -gneE37 -gneE36 edge-north-NW edge-west-WS edge-south-SE edge-east-EN"/>
    </vehicle>
    <vehicle id="-flow-random-route-d14ed780-3638-4654-9791-c9774b81442c--7692535896029086687-4-0.0" type="actor-impatient_car--5651090088601457430" depart="0.00" departLane="1" departPos="6.28" departSpeed="max" arrivalLane="0" arrivalPos="6.51">
        <route edges="edge-west-WS edge-south-SE edge-east-EN edge-north-NW gneE41 gneE42 gneE51 -gneE48 -gneE37 -gneE36"/>
    </vehicle>
    <vehicle id="-flow-random-route-d14ed780-3638-4654-9791-c9774b81442c--7692535896029086687-4-1.0" type="actor-patient_car--1549713596754082481" depart="0.00" departLane="1" departPos="6.28" departSpeed="max" arrivalLane="0" arrivalPos="6.51">
        <route edges="edge-west-WS edge-south-SE edge-east-EN edge-north-NW gneE41 gneE42 gneE51 -gneE48 -gneE37 -gneE36"/>
    </vehicle>
    <vehicle id="-flow-random-route-eb823b0f-3e60-4144-89c4-c69a4221f58b--7692535896029086687-9-0.0" type="actor-impatient_car--5651090088601457430" depart="0.00" departLane="1" departPos="6.37" departSpeed="max" arrivalLane="1" arrivalPos="10.45">
        <route edges="gneE41 gneE42 gneE51 -gneE48 -gneE37 -gneE36 edge-north-NW edge-west-WS edge-south-SE edge-east-EN"/>
    </vehicle>
    <vehicle id="-flow-random-route-eb823b0f-3e60-4144-89c4-c69a4221f58b--7692535896029086687-9-1.0" type="actor-patient_car--1549713596754082481" depart="0.00" departLane="1" departPos="6.37" departSpeed="max" arrivalLane="1" arrivalPos="10.45">
        <route edges="gneE41 gneE42 gneE51 -gneE48 -gneE37 -gneE36 edge-north-NW edge-west-WS edge-south-SE edge-east-EN"/>
    </vehicle>
    <vehicle id="-flow-random-route-ed3046e2-abb5-44d1-8e3f-8aaccf537e93--7692535896029086687-8-0.0" type="actor-impatient_car--5651090088601457430" depart="0.00" departLane="1" departPos="52.43" departSpeed="max" arrivalLane="0" arrivalPos="2.39">
        <route edges="edge-south-SE edge-east-EN edge-north-NW"/>
    </vehicle>
    <vehicle id="-flow-random-route-ed3046e2-abb5-44d1-8e3f-8aaccf537e93--7692535896029086687-8-1.0" type="actor-patient_car--1549713596754082481" depart="0.00" departLane="1" departPos="52.43" departSpeed="max" arrivalLane="0" arrivalPos="2.39">
        <route edges="edge-south-SE edge-east-EN edge-north-NW"/>
    </vehicle>
    <vehicle id="-flow-random-route-277fdf7b-2b4e-4d4f-9317-2865515847a0--7692535896029086687-12-0.1" type="actor-impatient_car--5651090088601457430" depart="240.00" departLane="1" departPos="41.55" departSpeed="max" arrivalLane="0" arrivalPos="33.95">
        <route edges="gneE42 gneE51 -gneE48 -gneE37 -gneE36 edge-north-NW"/>
    </vehicle>
    <vehicle id="-flow-random-route-277fdf7b-2b4e-4d4f-9317-2865515847a0--7692535896029086687-12-1.1" type="actor-patient_car--1549713596754082481" depart="240.00" departLane="1" departPos="41.55" departSpeed="max" arrivalLane="0" arrivalPos="33.95">
        <route edges="gneE42 gneE51 -gneE48 -gneE37 -gneE36 edge-north-NW"/>
    </vehicle>
    <vehicle id="-flow-random-route-2a4c0462-16aa-4f90-9c23-8cfbf84a5a22--7692535896029086687-5-0.1" type="actor-impatient_car--5651090088601457430" depart="240.00" departLane="0" departPos="62.07" departSpeed="max" arrivalLane="0" arrivalPos="87.68">
        <route edges="gneE14 gneE13 edge-south-SE edge-east-EN edge-north-NW edge-west-WS edge-south-SE edge-east-EN gneE36 gneE37"/>
    </vehicle>
    <vehicle id="-flow-random-route-2a4c0462-16aa-4f90-9c23-8cfbf84a5a22--7692535896029086687-5-1.1" type="actor-patient_car--1549713596754082481" depart="240.00" departLane="0" departPos="62.07" departSpeed="max" arrivalLane="0" arrivalPos="87.68">
        <route edges="gneE14 gneE13 edge-south-SE edge-east-EN edge-north-NW edge-west-WS edge-south-SE edge-east-EN gneE36 gneE37"/>
    </vehicle>
    <vehicle id="-flow-random-route-4175d1ac-bf61-44fe-a5c5-e1671da6cf60--7692535896029086687-13-0.1" type="actor-impatient_car--5651090088601457430" depart="240.00" departLane="1" departPos="26.78" departSpeed="max" arrivalLane="0" arrivalPos="8.22">
        <route edges="edge-south-SE edge-east-EN edge-north-NW edge-west-WS edge-south-SE edge-east-EN edge-north-NW gneE41 gneE42 gneE51"/>
    </vehicle>
    <vehicle id="-flow-random-route-4175d1ac-bf61-44fe-a5c5-e1671da6cf60--7692535896029086687-13-1.1" type="actor-patient_car--1549713596754082481" depart="240.00" departLane="1" departPos="26.78" departSpeed="max" arrivalLane="0" arrivalPos="8.22">
        <route edges="edge-south-SE edge-east-EN edge-north-NW edge-west-WS edge-south-SE edge-east-EN edge-north-NW gneE41 gneE42 gneE51"/>
    </vehicle>
    <vehicle id="-flow-random-route-462d60c2-0445-4d0b-a903-8b6c35806dec--7692535896029086687-2-0.1" type="actor-impatient_car--5651090088601457430" depart="240.00" departLane="0" departPos="11.29" departSpeed="max" arrivalLane="0" arrivalPos="0.16">
        <route edges="gneE42 gneE51 -gneE48 -gneE37 -gneE36 edge-north-NW edge-west-WS edge-south-SE edge-east-EN gneE36"/>
    </vehicle>
    <vehicle id="-flow-random-route-462d60c2-0445-4d0b-a903-8b6c35806dec--7692535896029086687-2-1.1" type="actor-patient_car--1549713596754082481" depart="240.00" departLane="0" departPos="11.29" departSpeed="max" arrivalLane="0" arrivalPos="0.16">
        <route edges="gneE42 gneE51 -gneE48 -gneE37 -gneE36 edge-north-NW edge-west-WS edge-south-SE edge-east-EN gneE36"/>
    </vehicle>
    <vehicle id="-flow-random-route-4c3b1241-4825-42d2-a4f9-d74f1c6100f1--7692535896029086687-1-0.1" type="actor-impatient_car--5651090088601457430" depart="240.00" departLane="0" departPos="61.54" departSpeed="max" arrivalLane="1" arrivalPos="84.63">
        <route edges="gneE37 gneE48 gneE53 gneE14 gneE13 edge-south-SE edge-east-EN edge-north-NW gneE41 gneE42"/>
    </vehicle>
    <vehicle id="-flow-random-route-4c3b1241-4825-42d2-a4f9-d74f1c6100f1--7692535896029086687-1-1.1" type="actor-patient_car--1549713596754082481" depart="240.00" departLane="0" departPos="61.54" departSpeed="max" arrivalLane="1" arrivalPos="84.63">
        <route edges="gneE37 gneE48 gneE53 gneE14 gneE13 edge-south-SE edge-east-EN edge-north-NW gneE41 gneE42"/>
    </vehicle>
    <vehicle id="-flow-random-route-63c414ce-0623-4952-a8e6-52dcc791b9c7--7692535896029086687-0-0.1" type="actor-impatient_car--5651090088601457430" depart="240.00" departLane="0" departPos="48.77" departSpeed="max" arrivalLane="0" arrivalPos="5.92">
        <route edges="edge-north-NW edge-west-WS edge-south-SE edge-east-EN gneE36 gneE37 gneE48 gneE53 gneE14 gneE13"/>
    </vehicle>
    <vehicle id="-flow-random-route-63c414ce-0623-4952-a8e6-52dcc791b9c7--7692535896029086687-0-1.1" type="actor-patient_car--1549713596754082481" depart="240.00" departLane="0" departPos="48.77" departSpeed="max" arrivalLane="0" arrivalPos="5.92">
        <route edges="edge-north-NW edge-west-WS edge-south-SE edge-east-EN gneE36 gneE37 gneE48 gneE53 gneE14 gneE13"/>
    </vehicle>
    <vehicle id="-flow-random-route-9760e315-6d29-438e-bad2-fe8bb1381e83--7692535896029086687-11-0.1" type="actor-impatient_car--5651090088601457430" depart="240.00" departLane="1" departPos="2.71" departSpeed="max" arrivalLane="1" arrivalPos="0.67">
        <route edges="gneE41 gneE42 gneE51 -gneE48 -gneE37 -gneE36 edge-north-NW edge-west-WS edge-south-SE edge-east-EN"/>
    </vehicle>
    <vehicle id="-flow-random-route-9760e315-6d29-438e-bad2-fe8bb1381e83--7692535896029086687-11-1.1" type="actor-patient_car--1549713596754082481" depart="240.00" departLane="1" departPos="2.71" departSpeed="max" arrivalLane="1" arrivalPos="0.67">
        <route edges="gneE41 gneE42 gneE51 -gneE48 -gneE37 -gneE36 edge-north-NW edge-west-WS edge-south-SE edge-east-EN"/>
    </vehicle>
    <vehicle id="-flow-random-route-a2c81e53-7b44-4361-998a-ce65dbb2b726--7692535896029086687-7-0.1" type="actor-impatient_car--5651090088601457430" depart="240.00" departLane="1" departPos="10.04" departSpeed="max" arrivalLane="1" arrivalPos="57.16">
        <route edges="gneE53 gneE14"/>
    </vehicle>
    <vehicle id="-flow-random-route-a2c81e53-7b44-4361-998a-ce65dbb2b726--7692535896029086687-7-1.1" type="actor-patient_car--1549713596754082481" depart="240.00" departLane="1" departPos="10.04" departSpeed="max" arrivalLane="1" arrivalPos="57.16">
        <route edges="gneE53 gneE14"/>
    </vehicle>
    <vehicle id="-flow-random-route-a8c4471f-52a7-4fa8-be0b-7dfdeff1a461--7692535896029086687-10-0.1" type="actor-impatient_car--5651090088601457430" depart="240.00" departLane="0" departPos="52.09" departSpeed="max" arrivalLane="0" arrivalPos="11.17">
        <route edges="gneE37 gneE48"/>
    </vehicle>
    <vehicle id="-flow-random-route-a8c4471f-52a7-4fa8-be0b-7dfdeff1a461--7692535896029086687-10-1.1" type="actor-patient_car--1549713596754082481" depart="240.00" departLane="0" departPos="52.09" departSpeed="max" arrivalLane="0" arrivalPos="11.17">
        <route edges="gneE37 gneE48"/>
    </vehicle>
    <vehicle id="-flow-random-route-bde11511-b851-4654-bef9-fcb8312d8d48--7692535896029086687-3-0.1" type="actor-impatient_car--5651090088601457430" depart="240.00" departLane="0" departPos="32.95" departSpeed="max" arrivalLane="0" arrivalPos="51.79">
        <route edges="edge-west-WS edge-south-SE edge-east-EN edge-north-NW edge-west-WS edge-south-SE edge-east-EN gneE36 gneE37 gneE48"/>
    </vehicle>
    <vehicle id="-flow-random-route-bde11511-b851-4654-bef9-fcb8312d8d48--7692535896029086687-3-1.1" type="actor-patient_car--1549713596754082481" depart="240.00" departLane="0" departPos="32.95" departSpeed="max" arrivalLane="0" arrivalPos="51.79">
        <route edges="edge-west-WS edge-south-SE edge-east-EN edge-north-NW edge-west-WS edge-south-SE edge-east-EN gneE36 gneE37 gneE48"/>
    </vehicle>
    <vehicle id="-flow-random-route-c8f1d1b3-5f45-4f25-9c95-4544ea75f1e6--7692535896029086687-6-0.1" type="actor-impatient_car--5651090088601457430" depart="240.00" departLane="0" departPos="8.01" departSpeed="max" arrivalLane="0" arrivalPos="52.26">
        <route edges="gneE41 gneE42 gneE51 -gneE48 -gneE37 -gneE36 edge-north-NW edge-west-WS edge-south-SE edge-east-EN"/>
    </vehicle>
    <vehicle id="-flow-random-route-c8f1d1b3-5f45-4f25-9c95-4544ea75f1e6--7692535896029086687-6-1.1" type="actor-patient_car--1549713596754082481" depart="240.00" departLane="0" departPos="8.01" departSpeed="max" arrivalLane="0" arrivalPos="52.26">
        <route edges="gneE41 gneE42 gneE51 -gneE48 -gneE37 -gneE36 edge-north-NW edge-west-WS edge-south-SE edge-east-EN"/>
    </vehicle>
    <vehicle id="-flow-random-route-d14ed780-3638-4654-9791-c9774b81442c--7692535896029086687-4-0.1" type="actor-impatient_car--5651090088601457430" depart="240.00" departLane="1" departPos="6.28" departSpeed="max" arrivalLane="0" arrivalPos="6.51">
        <route edges="edge-west-WS edge-south-SE edge-east-EN edge-north-NW gneE41 gneE42 gneE51 -gneE48 -gneE37 -gneE36"/>
    </vehicle>
    <vehicle id="-flow-random-route-d14ed780-3638-4654-9791-c9774b81442c--7692535896029086687-4-1.1" type="actor-patient_car--1549713596754082481" depart="240.00" departLane="1" departPos="6.28" departSpeed="max" arrivalLane="0" arrivalPos="6.51">
        <route edges="edge-west-WS edge-south-SE edge-east-EN edge-north-NW gneE41 gneE42 gneE51 -gneE48 -gneE37 -gneE36"/>
    </vehicle>
    <vehicle id="-flow-random-route-eb823b0f-3e60-4144-89c4-c69a4221f58b--7692535896029086687-9-0.1" type="actor-impatient_car--5651090088601457430" depart="240.00" departLane="1" departPos="6.37" departSpeed="max" arrivalLane="1" arrivalPos="10.45">
        <route edges="gneE41 gneE42 gneE51 -gneE48 -gneE37 -gneE36 edge-north-NW edge-west-WS edge-south-SE edge-east-EN"/>
    </vehicle>
    <vehicle id="-flow-random-route-eb823b0f-3e60-4144-89c4-c69a4221f58b--7692535896029086687-9-1.1" type="actor-patient_car--1549713596754082481" depart="240.00" departLane="1" departPos="6.37" departSpeed="max" arrivalLane="1" arrivalPos="10.45">
        <route edges="gneE41 gneE42 gneE51 -gneE48 -gneE37 -gneE36 edge-north-NW edge-west-WS edge-south-SE edge-east-EN"/>
    </vehicle>
    <vehicle id="-flow-random-route-ed3046e2-abb5-44d1-8e3f-8aaccf537e93--7692535896029086687-8-0.1" type="actor-impatient_car--5651090088601457430" depart="240.00" departLane="1" departPos="52.43" departSpeed="max" arrivalLane="0" arrivalPos="2.39">
        <route edges="edge-south-SE edge-east-EN edge-north-NW"/>
    </vehicle>
    <vehicle id="-flow-random-route-ed3046e2-abb5-44d1-8e3f-8aaccf537e93--7692535896029086687-8-1.1" type="actor-patient_car--1549713596754082481" depart="240.00" departLane="1" departPos="52.43" departSpeed="max" arrivalLane="0" arrivalPos="2.39">
        <route edges="edge-south-SE edge-east-EN edge-north-NW"/>
    </vehicle>
    <vehicle id="-flow-random-route-277fdf7b-2b4e-4d4f-9317-2865515847a0--7692535896029086687-12-0.2" type="actor-impatient_car--5651090088601457430" depart="480.00" departLane="1" departPos="41.55" departSpeed="max" arrivalLane="0" arrivalPos="33.95">
        <route edges="gneE42 gneE51 -gneE48 -gneE37 -gneE36 edge-north-NW"/>
    </vehicle>
    <vehicle id="-flow-random-route-277fdf7b-2b4e-4d4f-9317-2865515847a0--7692535896029086687-12-1.2" type="actor-patient_car--1549713596754082481" depart="480.00" departLane="1" departPos="41.55" departSpeed="max" arrivalLane="0" arrivalPos="33.95">
        <route edges="gneE42 gneE51 -gneE48 -gneE37 -gneE36 edge-north-NW"/>
    </vehicle>
    <vehicle id="-flow-random-route-2a4c0462-16aa-4f90-9c23-8cfbf84a5a22--7692535896029086687-5-0.2" type="actor-impatient_car--5651090088601457430" depart="480.00" departLane="0" departPos="62.07" departSpeed="max" arrivalLane="0" arrivalPos="87.68">
        <route edges="gneE14 gneE13 edge-south-SE edge-east-EN edge-north-NW edge-west-WS edge-south-SE edge-east-EN gneE36 gneE37"/>
    </vehicle>
    <vehicle id="-flow-random-route-2a4c0462-16aa-4f90-9c23-8cfbf84a5a22--7692535896029086687-5-1.2" type="actor-patient_car--1549713596754082481" depart="480.00" departLane="0" departPos="62.07" departSpeed="max" arrivalLane="0" arrivalPos="87.68">
        <route edges="gneE14 gneE13 edge-south-SE edge-east-EN edge-north-NW edge-west-WS edge-south-SE edge-east-EN gneE36 gneE37"/>
    </vehicle>
    <vehicle id="-flow-random-route-4175d1ac-bf61-44fe-a5c5-e1671da6cf60--7692535896029086687-13-0.2" type="actor-impatient_car--5651090088601457430" depart="480.00" departLane="1" departPos="26.78" departSpeed="max" arrivalLane="0" arrivalPos="8.22">
        <route edges="edge-south-SE edge-east-EN edge-north-NW edge-west-WS edge-south-SE edge-east-EN edge-north-NW gneE41 gneE42 gneE51"/>
    </vehicle>
    <vehicle id="-flow-random-route-4175d1ac-bf61-44fe-a5c5-e1671da6cf60--7692535896029086687-13-1.2" type="actor-patient_car--1549713596754082481" depart="480.00" departLane="1" departPos="26.78" departSpeed="max" arrivalLane="0" arrivalPos="8.22">
        <route edges="edge-south-SE edge-east-EN edge-north-NW edge-west-WS edge-south-SE edge-east-EN edge-north-NW gneE41 gneE42 gneE51"/>
    </vehicle>
    <vehicle id="-flow-random-route-462d60c2-0445-4d0b-a903-8b6c35806dec--7692535896029086687-2-0.2" type="actor-impatient_car--5651090088601457430" depart="480.00" departLane="0" departPos="11.29" departSpeed="max" arrivalLane="0" arrivalPos="0.16">
        <route edges="gneE42 gneE51 -gneE48 -gneE37 -gneE36 edge-north-NW edge-west-WS edge-south-SE edge-east-EN gneE36"/>
    </vehicle>
    <vehicle id="-flow-random-route-462d60c2-0445-4d0b-a903-8b6c35806dec--7692535896029086687-2-1.2" type="actor-patient_car--1549713596754082481" depart="480.00" departLane="0" departPos="11.29" departSpeed="max" arrivalLane="0" arrivalPos="0.16">
        <route edges="gneE42 gneE51 -gneE48 -gneE37 -gneE36 edge-north-NW edge-west-WS edge-south-SE edge-east-EN gneE36"/>
    </vehicle>
    <vehicle id="-flow-random-route-4c3b1241-4825-42d2-a4f9-d74f1c6100f1--7692535896029086687-1-0.2" type="actor-impatient_car--5651090088601457430" depart="480.00" departLane="0" departPos="61.54" departSpeed="max" arrivalLane="1" arrivalPos="84.63">
        <route edges="gneE37 gneE48 gneE53 gneE14 gneE13 edge-south-SE edge-east-EN edge-north-NW gneE41 gneE42"/>
    </vehicle>
    <vehicle id="-flow-random-route-4c3b1241-4825-42d2-a4f9-d74f1c6100f1--7692535896029086687-1-1.2" type="actor-patient_car--1549713596754082481" depart="480.00" departLane="0" departPos="61.54" departSpeed="max" arrivalLane="1" arrivalPos="84.63">
        <route edges="gneE37 gneE48 gneE53 gneE14 gneE13 edge-south-SE edge-east-EN edge-north-NW gneE41 gneE42"/>
    </vehicle>
    <vehicle id="-flow-random-route-63c414ce-0623-4952-a8e6-52dcc791b9c7--7692535896029086687-0-0.2" type="actor-impatient_car--5651090088601457430" depart="480.00" departLane="0" departPos="48.77" departSpeed="max" arrivalLane="0" arrivalPos="5.92">
        <route edges="edge-north-NW edge-west-WS edge-south-SE edge-east-EN gneE36 gneE37 gneE48 gneE53 gneE14 gneE13"/>
    </vehicle>
    <vehicle id="-flow-random-route-63c414ce-0623-4952-a8e6-52dcc791b9c7--7692535896029086687-0-1.2" type="actor-patient_car--1549713596754082481" depart="480.00" departLane="0" departPos="48.77" departSpeed="max" arrivalLane="0" arrivalPos="5.92">
        <route edges="edge-north-NW edge-west-WS edge-south-SE edge-east-EN gneE36 gneE37 gneE48 gneE53 gneE14 gneE13"/>
    </vehicle>
    <vehicle id="-flow-random-route-9760e315-6d29-438e-bad2-fe8bb1381e83--7692535896029086687-11-0.2" type="actor-impatient_car--5651090088601457430" depart="480.00" departLane="1" departPos="2.71" departSpeed="max" arrivalLane="1" arrivalPos="0.67">
        <route edges="gneE41 gneE42 gneE51 -gneE48 -gneE37 -gneE36 edge-north-NW edge-west-WS edge-south-SE edge-east-EN"/>
    </vehicle>
    <vehicle id="-flow-random-route-9760e315-6d29-438e-bad2-fe8bb1381e83--7692535896029086687-11-1.2" type="actor-patient_car--1549713596754082481" depart="480.00" departLane="1" departPos="2.71" departSpeed="max" arrivalLane="1" arrivalPos="0.67">
        <route edges="gneE41 gneE42 gneE51 -gneE48 -gneE37 -gneE36 edge-north-NW edge-west-WS edge-south-SE edge-east-EN"/>
    </vehicle>
    <vehicle id="-flow-random-route-a2c81e53-7b44-4361-998a-ce65dbb2b726--7692535896029086687-7-0.2" type="actor-impatient_car--5651090088601457430" depart="480.00" departLane="1" departPos="10.04" departSpeed="max" arrivalLane="1" arrivalPos="57.16">
        <route edges="gneE53 gneE14"/>
    </vehicle>
    <vehicle id="-flow-random-route-a2c81e53-7b44-4361-998a-ce65dbb2b726--7692535896029086687-7-1.2" type="actor-patient_car--1549713596754082481" depart="480.00" departLane="1" departPos="10.04" departSpeed="max" arrivalLane="1" arrivalPos="57.16">
        <route edges="gneE53 gneE14"/>
    </vehicle>
    <vehicle id="-flow-random-route-a8c4471f-52a7-4fa8-be0b-7dfdeff1a461--7692535896029086687-10-0.2" type="actor-impatient_car--5651090088601457430" depart="480.00" departLane="0" departPos="52.09" departSpeed="max" arrivalLane="0" arrivalPos="11.17">
        <route edges="gneE37 gneE48"/>
    </vehicle>
    <vehicle id="-flow-random-route-a8c4471f-52a7-4fa8-be0b-7dfdeff1a461--7692535896029086687-10-1.2" type="actor-patient_car--1549713596754082481" depart="480.00" departLane="0" departPos="52.09" departSpeed="max" arrivalLane="0" arrivalPos="11.17">
        <route edges="gneE37 gneE48"/>
    </vehicle>
    <vehicle id="-flow-random-route-bde11511-b851-4654-bef9-fcb8312d8d48--7692535896029086687-3-0.2" type="actor-impatient_car--5651090088601457430" depart="480.00" departLane="0" departPos="32.95" departSpeed="max" arrivalLane="0" arrivalPos="51.79">
        <route edges="edge-west-WS edge-south-SE edge-east-EN edge-north-NW edge-west-WS edge-south-SE edge-east-EN gneE36 gneE37 gneE48"/>
    </vehicle>
    <vehicle id="-flow-random-route-bde11511-b851-4654-bef9-fcb8312d8d48--7692535896029086687-3-1.2" type="actor-patient_car--1549713596754082481" depart="480.00" departLane="0" departPos="32.95" departSpeed="max" arrivalLane="0" arrivalPos="51.79">