<?xml version="1.0" encoding="UTF-8"?>

<!-- generated on Sun Oct  4 03:11:57 2020 by Eclipse SUMO duarouter Version 1.6.0
<configuration xmlns:xsi="http://www.w3.org/2001/XMLSchema-instance" xsi:noNamespaceSchemaLocation="http://sumo.dlr.de/xsd/duarouterConfiguration.xsd">

    <input>
        <net-file value="/root/workspace/dataset_public/mixed_loop/roundabout_its_b/map.net.xml"/>
        <route-files value="/tmp/tmp0mfaaka7/trips.trips.xml"/>
    </input>

    <output>
        <output-file value="/root/workspace/dataset_public/mixed_loop/roundabout_its_b/traffic/34_patient_car_0.5_impatient_car_0.5.rou.xml"/>
        <alternatives-output value="/root/workspace/dataset_public/mixed_loop/roundabout_its_b/traffic/34_patient_car_0.5_impatient_car_0.5.rou.alt.xml"/>
    </output>

    <processing>
        <unsorted-input value="true"/>
        <repair value="true"/>
    </processing>

    <report>
        <error-log value="/tmp/smarts/_duarouter_routing/traffic/34_patient_car_0.5_impatient_car_0.5.log"/>
        <no-step-log value="true"/>
    </report>

    <random_number>
        <seed value="865"/>
    </random_number>

</configuration>
-->

<routes xmlns:xsi="http://www.w3.org/2001/XMLSchema-instance" xsi:noNamespaceSchemaLocation="http://sumo.dlr.de/xsd/routes_file.xsd">
    <vType id="actor-impatient_car--8916547456550973882" minGap="2.50" speedFactor="normc(0.50,0.20,0.20,2.00)" vClass="passenger" impatience="0.50" lcCooperative="0.5" lcImpatience="0" jmDriveAfterYellowTime="1.0" accel="2.6" decel="4.5" sigma="0.5"/>
    <vehicle id="-flow-random-route-0261df6f-5735-40c4-b073-6ef505bdbef6--7026817598903204907-2-0.0" type="actor-impatient_car--8916547456550973882" depart="0.00" departLane="0" departPos="20.17" departSpeed="max" arrivalLane="0" arrivalPos="48.10">
        <route edges="gneE95 -gneE93 -gneE82 -gneE81 edge-east-EN gneE95 gneE94 gneE91 gneE92 edge-west-WS"/>
    </vehicle>
    <vType id="actor-patient_car--138008658121073948" minGap="2.50" speedFactor="normc(0.50,0.20,0.20,2.00)" vClass="passenger" impatience="1.00" lcCooperative="0.25" lcImpatience="1" jmDriveAfterYellowTime="1.0" jmDriveAfterRedTime="1.5" accel="2.6" decel="4.5" sigma="0.5"/>
    <vehicle id="-flow-random-route-0261df6f-5735-40c4-b073-6ef505bdbef6--7026817598903204907-2-1.0" type="actor-patient_car--138008658121073948" depart="0.00" departLane="0" departPos="20.17" departSpeed="max" arrivalLane="0" arrivalPos="48.10">
        <route edges="gneE95 -gneE93 -gneE82 -gneE81 edge-east-EN gneE95 gneE94 gneE91 gneE92 edge-west-WS"/>
    </vehicle>
    <vehicle id="-flow-random-route-15744175-3beb-491f-888f-53ec05ef3974--7026817598903204907-6-0.0" type="actor-impatient_car--8916547456550973882" depart="0.00" departLane="0" departPos="19.85" departSpeed="max" arrivalLane="0" arrivalPos="5.05">
        <route edges="edge-west-WS edge-south-SE gneE81 gneE82 gneE93 -gneE95 edge-north-NW -gneE92 -gneE91 -gneE94"/>
    </vehicle>
    <vehicle id="-flow-random-route-15744175-3beb-491f-888f-53ec05ef3974--7026817598903204907-6-1.0" type="actor-patient_car--138008658121073948" depart="0.00" departLane="0" departPos="19.85" departSpeed="max" arrivalLane="0" arrivalPos="5.05">
        <route edges="edge-west-WS edge-south-SE gneE81 gneE82 gneE93 -gneE95 edge-north-NW -gneE92 -gneE91 -gneE94"/>
    </vehicle>
    <vehicle id="-flow-random-route-2f757872-fbc7-44c8-9dcf-5a53d7d3c277--7026817598903204907-13-0.0" type="actor-impatient_car--8916547456550973882" depart="0.00" departLane="0" departPos="38.11" departSpeed="max" arrivalLane="1" arrivalPos="44.57">
        <route edges="-gneE95 edge-north-NW -gneE92 -gneE91 -gneE94 -gneE95 edge-north-NW edge-west-WS edge-south-SE edge-east-EN"/>
    </vehicle>
    <vehicle id="-flow-random-route-2f757872-fbc7-44c8-9dcf-5a53d7d3c277--7026817598903204907-13-1.0" type="actor-patient_car--138008658121073948" depart="0.00" departLane="0" departPos="38.11" departSpeed="max" arrivalLane="1" arrivalPos="44.57">
        <route edges="-gneE95 edge-north-NW -gneE92 -gneE91 -gneE94 -gneE95 edge-north-NW edge-west-WS edge-south-SE edge-east-EN"/>
    </vehicle>
    <vehicle id="-flow-random-route-4451994a-d983-4756-bdce-abc6fca5a37b--7026817598903204907-1-0.0" type="actor-impatient_car--8916547456550973882" depart="0.00" departLane="0" departPos="26.48" departSpeed="max" arrivalLane="0" arrivalPos="83.04">
        <route edges="-gneE81 edge-east-EN gneE95 gneE94 gneE91 gneE92 edge-west-WS edge-south-SE gneE81 gneE82"/>
    </vehicle>
    <vehicle id="-flow-random-route-4451994a-d983-4756-bdce-abc6fca5a37b--7026817598903204907-1-1.0" type="actor-patient_car--138008658121073948" depart="0.00" departLane="0" departPos="26.48" departSpeed="max" arrivalLane="0" arrivalPos="83.04">
        <route edges="-gneE81 edge-east-EN gneE95 gneE94 gneE91 gneE92 edge-west-WS edge-south-SE gneE81 gneE82"/>
    </vehicle>
    <vehicle id="-flow-random-route-4caf6482-c85e-43c0-949d-62f3ba7ba52e--7026817598903204907-9-0.0" type="actor-impatient_car--8916547456550973882" depart="0.00" departLane="0" departPos="31.69" departSpeed="max" arrivalLane="0" arrivalPos="25.68">
        <route edges="gneE81 gneE82 gneE93 -gneE95 edge-north-NW -gneE92 -gneE91 -gneE94 -gneE93 -gneE82"/>
    </vehicle>
    <vehicle id="-flow-random-route-4caf6482-c85e-43c0-949d-62f3ba7ba52e--7026817598903204907-9-1.0" type="actor-patient_car--138008658121073948" depart="0.00" departLane="0" departPos="31.69" departSpeed="max" arrivalLane="0" arrivalPos="25.68">
        <route edges="gneE81 gneE82 gneE93 -gneE95 edge-north-NW -gneE92 -gneE91 -gneE94 -gneE93 -gneE82"/>
    </vehicle>
    <vehicle id="-flow-random-route-50542ef0-3ead-43bc-89ed-74f5bb297b0f--7026817598903204907-16-0.0" type="actor-impatient_car--8916547456550973882" depart="0.00" departLane="0" departPos="68.32" departSpeed="max" arrivalLane="0" arrivalPos="24.08">
        <route edges="-gneE91 -gneE94 -gneE95 edge-north-NW edge-west-WS edge-south-SE gneE81 gneE82 gneE93 gneE94"/>
    </vehicle>
    <vehicle id="-flow-random-route-50542ef0-3ead-43bc-89ed-74f5bb297b0f--7026817598903204907-16-1.0" type="actor-patient_car--138008658121073948" depart="0.00" departLane="0" departPos="68.32" departSpeed="max" arrivalLane="0" arrivalPos="24.08">
        <route edges="-gneE91 -gneE94 -gneE95 edge-north-NW edge-west-WS edge-south-SE gneE81 gneE82 gneE93 gneE94"/>
    </vehicle>
    <vehicle id="-flow-random-route-5181493d-92a9-4e07-884c-2ac2a5d2cfb8--7026817598903204907-12-0.0" type="actor-impatient_car--8916547456550973882" depart="0.00" departLane="0" departPos="32.90" departSpeed="max" arrivalLane="0" arrivalPos="83.46">
        <route edges="-gneE82 -gneE81 edge-east-EN edge-north-NW edge-west-WS edge-south-SE gneE81 gneE82 gneE93 gneE94"/>
    </vehicle>
    <vehicle id="-flow-random-route-5181493d-92a9-4e07-884c-2ac2a5d2cfb8--7026817598903204907-12-1.0" type="actor-patient_car--138008658121073948" depart="0.00" departLane="0" departPos="32.90" departSpeed="max" arrivalLane="0" arrivalPos="83.46">
        <route edges="-gneE82 -gneE81 edge-east-EN edge-north-NW edge-west-WS edge-south-SE gneE81 gneE82 gneE93 gneE94"/>
    </vehicle>
    <vehicle id="-flow-random-route-5d575caf-518d-4fd5-bd95-a2bcf08deb42--7026817598903204907-10-0.0" type="actor-impatient_car--8916547456550973882" depart="0.00" departLane="0" departPos="103.24" departSpeed="max" arrivalLane="1" arrivalPos="156.82">
        <route edges="-gneE94 -gneE95 edge-north-NW -gneE92 -gneE91 -gneE94 -gneE95 edge-north-NW edge-west-WS gneE96"/>
    </vehicle>
    <vehicle id="-flow-random-route-5d575caf-518d-4fd5-bd95-a2bcf08deb42--7026817598903204907-10-1.0" type="actor-patient_car--138008658121073948" depart="0.00" departLane="0" departPos="103.24" departSpeed="max" arrivalLane="1" arrivalPos="156.82">
        <route edges="-gneE94 -gneE95 edge-north-NW -gneE92 -gneE91 -gneE94 -gneE95 edge-north-NW edge-west-WS gneE96"/>
    </vehicle>
    <vehicle id="-flow-random-route-85288be5-cddb-4bdc-9bb6-7869c52b02ab--7026817598903204907-5-0.0" type="actor-impatient_car--8916547456550973882" depart="0.00" departLane="0" departPos="128.15" departSpeed="max" arrivalLane="0" arrivalPos="23.68">
        <route edges="gneE97 gneE98 gneE93"/>
    </vehicle>
    <vehicle id="-flow-random-route-85288be5-cddb-4bdc-9bb6-7869c52b02ab--7026817598903204907-5-1.0" type="actor-patient_car--138008658121073948" depart="0.00" departLane="0" departPos="128.15" departSpeed="max" arrivalLane="0" arrivalPos="23.68">
        <route edges="gneE97 gneE98 gneE93"/>
    </vehicle>
    <vehicle id="-flow-random-route-ab4d35cc-d1fb-4777-b3be-203c6d2710ab--7026817598903204907-3-0.0" type="actor-impatient_car--8916547456550973882" depart="0.00" departLane="0" departPos="18.19" departSpeed="max" arrivalLane="1" arrivalPos="15.12">
        <route edges="gneE95 -gneE93 -gneE82 -gneE81 edge-east-EN gneE95 gneE94 gneE91 gneE92 edge-west-WS"/>
    </vehicle>
    <vehicle id="-flow-random-route-ab4d35cc-d1fb-4777-b3be-203c6d2710ab--7026817598903204907-3-1.0" type="actor-patient_car--138008658121073948" depart="0.00" departLane="0" departPos="18.19" departSpeed="max" arrivalLane="1" arrivalPos="15.12">
        <route edges="gneE95 -gneE93 -gneE82 -gneE81 edge-east-EN gneE95 gneE94 gneE91 gneE92 edge-west-WS"/>
    </vehicle>
    <vehicle id="-flow-random-route-ae031d1b-06e6-42c4-a26e-5378299583b6--7026817598903204907-15-0.0" type="actor-impatient_car--8916547456550973882" depart="0.00" departLane="0" departPos="15.80" departSpeed="max" arrivalLane="0" arrivalPos="0.28">
        <route edges="-gneE81 edge-east-EN edge-north-NW"/>
    </vehicle>
    <vehicle id="-flow-random-route-ae031d1b-06e6-42c4-a26e-5378299583b6--7026817598903204907-15-1.0" type="actor-patient_car--138008658121073948" depart="0.00" departLane="0" departPos="15.80" departSpeed="max" arrivalLane="0" arrivalPos="0.28">
        <route edges="-gneE81 edge-east-EN edge-north-NW"/>
    </vehicle>
    <vehicle id="-flow-random-route-b72e66fe-b37b-4bd6-a52f-6087e0a6b5a9--7026817598903204907-14-0.0" type="actor-impatient_car--8916547456550973882" depart="0.00" departLane="1" departPos="49.94" departSpeed="max" arrivalLane="0" arrivalPos="69.58">
        <route edges="edge-east-EN gneE95 -gneE93 -gneE82 -gneE81 edge-east-EN edge-north-NW -gneE92 -gneE91 -gneE94"/>
    </vehicle>
    <vehicle id="-flow-random-route-b72e66fe-b37b-4bd6-a52f-6087e0a6b5a9--7026817598903204907-14-1.0" type="actor-patient_car--138008658121073948" depart="0.00" departLane="1" departPos="49.94" departSpeed="max" arrivalLane="0" arrivalPos="69.58">
        <route edges="edge-east-EN gneE95 -gneE93 -gneE82 -gneE81 edge-east-EN edge-north-NW -gneE92 -gneE91 -gneE94"/>
    </vehicle>
    <vehicle id="-flow-random-route-b775e8bb-13be-46b0-a401-4bc732731617--7026817598903204907-4-0.0" type="actor-impatient_car--8916547456550973882" depart="0.00" departLane="0" departPos="75.33" departSpeed="max" arrivalLane="0" arrivalPos="55.25">
        <route edges="gneE91 gneE92"/>
    </vehicle>
    <vehicle id="-flow-random-route-b775e8bb-13be-46b0-a401-4bc732731617--7026817598903204907-4-1.0" type="actor-patient_car--138008658121073948" depart="0.00" departLane="0" departPos="75.33" departSpeed="max" arrivalLane="0" arrivalPos="55.25">
        <route edges="gneE91 gneE92"/>
    </vehicle>
    <vehicle id="-flow-random-route-bec79ec0-62d4-4c31-a316-aae1759ab8ec--7026817598903204907-7-0.0" type="actor-impatient_car--8916547456550973882" depart="0.00" departLane="0" departPos="45.84" departSpeed="max" arrivalLane="1" arrivalPos="56.76">
        <route edges="-gneE95 edge-north-NW"/>
    </vehicle>
    <vehicle id="-flow-random-route-bec79ec0-62d4-4c31-a316-aae1759ab8ec--7026817598903204907-7-1.0" type="actor-patient_car--138008658121073948" depart="0.00" departLane="0" departPos="45.84" departSpeed="max" arrivalLane="1" arrivalPos="56.76">
        <route edges="-gneE95 edge-north-NW"/>
    </vehicle>
    <vehicle id="-flow-random-route-cd94e91f-4d75-4e65-be05-aa07226757cb--7026817598903204907-8-0.0" type="actor-impatient_car--8916547456550973882" depart="0.00" departLane="0" departPos="95.01" departSpeed="max" arrivalLane="0" arrivalPos="71.00">
        <route edges="-gneE94 -gneE95 edge-north-NW edge-west-WS edge-south-SE gneE81 gneE82 gneE93 gneE94 gneE91"/>
    </vehicle>
    <vehicle id="-flow-random-route-cd94e91f-4d75-4e65-be05-aa07226757cb--7026817598903204907-8-1.0" type="actor-patient_car--138008658121073948" depart="0.00" departLane="0" departPos="95.01" departSpeed="max" arrivalLane="0" arrivalPos="71.00">
        <route edges="-gneE94 -gneE95 edge-north-NW edge-west-WS edge-south-SE gneE81 gneE82 gneE93 gneE94 gneE91"/>
    </vehicle>
    <vehicle id="-flow-random-route-e93e69e0-28e4-42a9-bfb4-cc0999ca006d--7026817598903204907-11-0.0" type="actor-impatient_car--8916547456550973882" depart="0.00" departLane="0" departPos="24.57" departSpeed="max" arrivalLane="0" arrivalPos="57.81">
        <route edges="-gneE81 edge-east-EN gneE95 -gneE93 -gneE82 -gneE81 edge-east-EN edge-north-NW -gneE92 -gneE91"/>
    </vehicle>
    <vehicle id="-flow-random-route-e93e69e0-28e4-42a9-bfb4-cc0999ca006d--7026817598903204907-11-1.0" type="actor-patient_car--138008658121073948" depart="0.00" departLane="0" departPos="24.57" departSpeed="max" arrivalLane="0" arrivalPos="57.81">
        <route edges="-gneE81 edge-east-EN gneE95 -gneE93 -gneE82 -gneE81 edge-east-EN edge-north-NW -gneE92 -gneE91"/>
    </vehicle>
    <vehicle id="-flow-random-route-f9047b04-d2c6-4b3e-b057-f66f150999ab--7026817598903204907-0-0.0" type="actor-impatient_car--8916547456550973882" depart="0.00" departLane="0" departPos="72.85" departSpeed="max" arrivalLane="0" arrivalPos="43.76">
        <route edges="-gneE93 -gneE82 -gneE81 edge-east-EN edge-north-NW edge-west-WS edge-south-SE edge-east-EN gneE95 -gneE93"/>
    </vehicle>
    <vehicle id="-flow-random-route-f9047b04-d2c6-4b3e-b057-f66f150999ab--7026817598903204907-0-1.0" type="actor-patient_car--138008658121073948" depart="0.00" departLane="0" departPos="72.85" departSpeed="max" arrivalLane="0" arrivalPos="43.76">
        <route edges="-gneE93 -gneE82 -gneE81 edge-east-EN edge-north-NW edge-west-WS edge-south-SE edge-east-EN gneE95 -gneE93"/>
    </vehicle>
    <vehicle id="-flow-random-route-0261df6f-5735-40c4-b073-6ef505bdbef6--7026817598903204907-2-0.1" type="actor-impatient_car--8916547456550973882" depart="240.00" departLane="0" departPos="20.17" departSpeed="max" arrivalLane="0" arrivalPos="48.10">
        <route edges="gneE95 -gneE93 -gneE82 -gneE81 edge-east-EN gneE95 gneE94 gneE91 gneE92 edge-west-WS"/>
    </vehicle>
    <vehicle id="-flow-random-route-0261df6f-5735-40c4-b073-6ef505bdbef6--7026817598903204907-2-1.1" type="actor-patient_car--138008658121073948" depart="240.00" departLane="0" departPos="20.17" departSpeed="max" arrivalLane="0" arrivalPos="48.10">
        <route edges="gneE95 -gneE93 -gneE82 -gneE81 edge-east-EN gneE95 gneE94 gneE91 gneE92 edge-west-WS"/>
    </vehicle>
    <vehicle id="-flow-random-route-15744175-3beb-491f-888f-53ec05ef3974--7026817598903204907-6-0.1" type="actor-impatient_car--8916547456550973882" depart="240.00" departLane="0" departPos="19.85" departSpeed="max" arrivalLane="0" arrivalPos="5.05">
        <route edges="edge-west-WS edge-south-SE gneE81 gneE82 gneE93 -gneE95 edge-north-NW -gneE92 -gneE91 -gneE94"/>
    </vehicle>
    <vehicle id="-flow-random-route-15744175-3beb-491f-888f-53ec05ef3974--7026817598903204907-6-1.1" type="actor-patient_car--138008658121073948" depart="240.00" departLane="0" departPos="19.85" departSpeed="max" arrivalLane="0" arrivalPos="5.05">
        <route edges="edge-west-WS edge-south-SE gneE81 gneE82 gneE93 -gneE95 edge-north-NW -gneE92 -gneE91 -gneE94"/>
    </vehicle>
    <vehicle id="-flow-random-route-2f757872-fbc7-44c8-9dcf-5a53d7d3c277--7026817598903204907-13-0.1" type="actor-impatient_car--8916547456550973882" depart="240.00" departLane="0" departPos="38.11" departSpeed="max" arrivalLane="1" arrivalPos="44.57">
        <route edges="-gneE95 edge-north-NW -gneE92 -gneE91 -gneE94 -gneE95 edge-north-NW edge-west-WS edge-south-SE edge-east-EN"/>
    </vehicle>
    <vehicle id="-flow-random-route-2f757872-fbc7-44c8-9dcf-5a53d7d3c277--7026817598903204907-13-1.1" type="actor-patient_car--138008658121073948" depart="240.00" departLane="0" departPos="38.11" departSpeed="max" arrivalLane="1" arrivalPos="44.57">
        <route edges="-gneE95 edge-north-NW -gneE92 -gneE91 -gneE94 -gneE95 edge-north-NW edge-west-WS edge-south-SE edge-east-EN"/>
    </vehicle>
    <vehicle id="-flow-random-route-4451994a-d983-4756-bdce-abc6fca5a37b--7026817598903204907-1-0.1" type="actor-impatient_car--8916547456550973882" depart="240.00" departLane="0" departPos="26.48" departSpeed="max" arrivalLane="0" arrivalPos="83.04">
        <route edges="-gneE81 edge-east-EN gneE95 gneE94 gneE91 gneE92 edge-west-WS edge-south-SE gneE81 gneE82"/>
    </vehicle>
    <vehicle id="-flow-random-route-4451994a-d983-4756-bdce-abc6fca5a37b--7026817598903204907-1-1.1" type="actor-patient_car--138008658121073948" depart="240.00" departLane="0" departPos="26.48" departSpeed="max" arrivalLane="0" arrivalPos="83.04">
        <route edges="-gneE81 edge-east-EN gneE95 gneE94 gneE91 gneE92 edge-west-WS edge-south-SE gneE81 gneE82"/>
    </vehicle>
    <vehicle id="-flow-random-route-4caf6482-c85e-43c0-949d-62f3ba7ba52e--7026817598903204907-9-0.1" type="actor-impatient_car--8916547456550973882" depart="240.00" departLane="0" departPos="31.69" departSpeed="max" arrivalLane="0" arrivalPos="25.68">
        <route edges="gneE81 gneE82 gneE93 -gneE95 edge-north-NW -gneE92 -gneE91 -gneE94 -gneE93 -gneE82"/>
    </vehicle>
    <vehicle id="-flow-random-route-4caf6482-c85e-43c0-949d-62f3ba7ba52e--7026817598903204907-9-1.1" type="actor-patient_car--138008658121073948" depart="240.00" departLane="0" departPos="31.69" departSpeed="max" arrivalLane="0" arrivalPos="25.68">
        <route edges="gneE81 gneE82 gneE93 -gneE95 edge-north-NW -gneE92 -gneE91 -gneE94 -gneE93 -gneE82"/>
    </vehicle>
    <vehicle id="-flow-random-route-50542ef0-3ead-43bc-89ed-74f5bb297b0f--7026817598903204907-16-0.1" type="actor-impatient_car--8916547456550973882" depart="240.00" departLane="0" departPos="68.32" departSpeed="max" arrivalLane="0" arrivalPos="24.08">
        <route edges="-gneE91 -gneE94 -gneE95 edge-north-NW edge-west-WS edge-south-SE gneE81 gneE82 gneE93 gneE94"/>
    </vehicle>
    <vehicle id="-flow-random-route-50542ef0-3ead-43bc-89ed-74f5bb297b0f--7026817598903204907-16-1.1" type="actor-patient_car--138008658121073948" depart="240.00" departLane="0" departPos="68.32" departSpeed="max" arrivalLane="0" arrivalPos="24.08">
        <route edges="-gneE91 -gneE94 -gneE95 edge-north-NW edge-west-WS edge-south-SE gneE81 gneE82 gneE93 gneE94"/>
    </vehicle>
    <vehicle id="-flow-random-route-5181493d-92a9-4e07-884c-2ac2a5d2cfb8--7026817598903204907-12-0.1" type="actor-impatient_car--8916547456550973882" depart="240.00" departLane="0" departPos="32.90" departSpeed="max" arrivalLane="0" arrivalPos="83.46">
        <route edges="-gneE82 -gneE81 edge-east-EN edge-north-NW edge-west-WS edge-south-SE gneE81 gneE82 gneE93 gneE94"/>
    </vehicle>
    <vehicle id="-flow-random-route-5181493d-92a9-4e07-884c-2ac2a5d2cfb8--7026817598903204907-12-1.1" type="actor-patient_car--138008658121073948" depart="240.00" departLane="0" departPos="32.90" departSpeed="max" arrivalLane="0" arrivalPos="83.46">
        <route edges="-gneE82 -gneE81 edge-east-EN edge-north-NW edge-west-WS edge-south-SE gneE81 gneE82 gneE93 gneE94"/>
    </vehicle>
    <vehicle id="-flow-random-route-5d575caf-518d-4fd5-bd95-a2bcf08deb42--7026817598903204907-10-0.1" type="actor-impatient_car--8916547456550973882" depart="240.00" departLane="0" departPos="103.24" departSpeed="max" arrivalLane="1" arrivalPos="156.82">
        <route edges="-gneE94 -gneE95 edge-north-NW -gneE92 -gneE91 -gneE94 -gneE95 edge-north-NW edge-west-WS gneE96"/>
    </vehicle>
    <vehicle id="-flow-random-route-5d575caf-518d-4fd5-bd95-a2bcf08deb42--7026817598903204907-10-1.1" type="actor-patient_car--138008658121073948" depart="240.00" departLane="0" departPos="103.24" departSpeed="max" arrivalLane="1" arrivalPos="156.82">
        <route edges="-gneE94 -gneE95 edge-north-NW -gneE92 -gneE91 -gneE94 -gneE95 edge-north-NW edge-west-WS gneE96"/>
    </vehicle>
    <vehicle id="-flow-random-route-85288be5-cddb-4bdc-9bb6-7869c52b02ab--7026817598903204907-5-0.1" type="actor-impatient_car--8916547456550973882" depart="240.00" departLane="0" departPos="128.15" departSpeed="max" arrivalLane="0" arrivalPos="23.68">
        <route edges="gneE97 gneE98 gneE93"/>
    </vehicle>
    <vehicle id="-flow-random-route-85288be5-cddb-4bdc-9bb6-7869c52b02ab--7026817598903204907-5-1.1" type="actor-patient_car--138008658121073948" depart="240.00" departLane="0" departPos="128.15" departSpeed="max" arrivalLane="0" arrivalPos="23.68">
        <route edges="gneE97 gneE98 gneE93"/>
    </vehicle>
    <vehicle id="-flow-random-route-ab4d35cc-d1fb-4777-b3be-203c6d2710ab--7026817598903204907-3-0.1" type="actor-impatient_car--8916547456550973882" depart="240.00" departLane="0" departPos="18.19" departSpeed="max" arrivalLane="1" arrivalPos="15.12">
        <route edges="gneE95 -gneE93 -gneE82 -gneE81 edge-east-EN gneE95 gneE94 gneE91 gneE92 edge-west-WS"/>
    </vehicle>
    <vehicle id="-flow-random-route-ab4d35cc-d1fb-4777-b3be-203c6d2710ab--7026817598903204907-3-1.1" type="actor-patient_car--138008658121073948" depart="240.00" departLane="0" departPos="18.19" departSpeed="max" arrivalLane="1" arrivalPos="15.12">
        <route edges="gneE95 -gneE93 -gneE82 -gneE81 edge-east-EN gneE95 gneE94 gneE91 gneE92 edge-west-WS"/>
    </vehicle>
    <vehicle id="-flow-random-route-ae031d1b-06e6-42c4-a26e-5378299583b6--7026817598903204907-15-0.1" type="actor-impatient_car--8916547456550973882" depart="240.00" departLane="0" departPos="15.80" departSpeed="max" arrivalLane="0" arrivalPos="0.28">
        <route edges="-gneE81 edge-east-EN edge-north-NW"/>
    </vehicle>
    <vehicle id="-flow-random-route-ae031d1b-06e6-42c4-a26e-5378299583b6--7026817598903204907-15-1.1" type="actor-patient_car--138008658121073948" depart="240.00" departLane="0" departPos="15.80" departSpeed="max" arrivalLane="0" arrivalPos="0.28">
        <route edges="-gneE81 edge-east-EN edge-north-NW"/>
    </vehicle>
    <vehicle id="-flow-random-route-b72e66fe-b37b-4bd6-a52f-6087e0a6b5a9--7026817598903204907-14-0.1" type="actor-impatient_car--8916547456550973882" depart="240.00" departLane="1" departPos="49.94" departSpeed="max" arrivalLane="0" arrivalPos="69.58">
        <route edges="edge-east-EN gneE95 -gneE93 -gneE82 -gneE81 edge-east-EN edge-north-NW -gneE92 -gneE91 -gneE94"/>
    </vehicle>
    <vehicle id="-flow-random-route-b72e66fe-b37b-4bd6-a52f-6087e0a6b5a9--7026817598903204907-14-1.1" type="actor-patient_car--138008658121073948" depart="240.00" departLane="1" departPos="49.94" departSpeed="max" arrivalLane="0" arrivalPos="69.58">
        <route edges="edge-east-EN gneE95 -gneE93 -gneE82 -gneE81 edge-east-EN edge-north-NW -gneE92 -gneE91 -gneE94"/>
    </vehicle>
    <vehicle id="-flow-random-route-b775e8bb-13be-46b0-a401-4bc732731617--7026817598903204907-4-0.1" type="actor-impatient_car--8916547456550973882" depart="240.00" departLane="0" departPos="75.33" departSpeed="max" arrivalLane="0" arrivalPos="55.25">
        <route edges="gneE91 gneE92"/>
    </vehicle>
    <vehicle id="-flow-random-route-b775e8bb-13be-46b0-a401-4bc732731617--7026817598903204907-4-1.1" type="actor-patient_car--138008658121073948" depart="240.00" departLane="0" departPos="75.33" departSpeed="max" arrivalLane="0" arrivalPos="55.25">
        <route edges="gneE91 gneE92"/>
    </vehicle>
    <vehicle id="-flow-random-route-bec79ec0-62d4-4c31-a316-aae1759ab8ec--7026817598903204907-7-0.1" type="actor-impatient_car--8916547456550973882" depart="240.00" departLane="0" departPos="45.84" departSpeed="max" arrivalLane="1" arrivalPos="56.76">
        <route edges="-gneE95 edge-north-NW"/>
    </vehicle>
    <vehicle id="-flow-random-route-bec79ec0-62d4-4c31-a316-aae1759ab8ec--7026817598903204907-7-1.1" type="actor-patient_car--138008658121073948" depart="240.00" departLane="0" departPos="45.84" departSpeed="max" arrivalLane="1" arrivalPos="56.76">
        <route edges="-gneE95 edge-north-NW"/>
    </vehicle>
    <vehicle id="-flow-random-route-cd94e91f-4d75-4e65-be05-aa07226757cb--7026817598903204907-8-0.1" type="actor-impatient_car--8916547456550973882" depart="240.00" departLane="0" departPos="95.01" departSpeed="max" arrivalLane="0" arrivalPos="71.00">
        <route edges="-gneE94 -gneE95 edge-north-NW edge-west-WS edge-south-SE gneE81 gneE82 gneE93 gneE94 gneE91"/>
    </vehicle>
    <vehicle id="-flow-random-route-cd94e91f-4d75-4e65-be05-aa07226757cb--7026817598903204907-8-1.1" type="actor-patient_car--138008658121073948" depart="240.00" departLane="0" departPos="95.01" departSpeed="max" arrivalLane="0" arrivalPos="71.00">
        <route edges="-gneE94 -gneE95 edge-north-NW edge-west-WS edge-south-SE gneE81 gneE82 gneE93 gneE94 gneE91"/>
    </vehicle>
    <vehicle id="-flow-random-route-e93e69e0-28e4-42a9-bfb4-cc0999ca006d--7026817598903204907-11-0.1" type="actor-impatient_car--8916547456550973882" depart="240.00" departLane="0" departPos="24.57" departSpeed="max" arrivalLane="0" arrivalPos="57.81">
        <route edges="-gneE81 edge-east-EN gneE95 -gneE93 -gneE82 -gneE81 edge-east-EN edge-north-NW -gneE92 -gneE91"/>
    </vehicle>
    <vehicle id="-flow-random-route-e93e69e0-28e4-42a9-bfb4-cc0999ca006d--7026817598903204907-11-1.1" type="actor-patient_car--138008658121073948" depart="240.00" departLane="0" departPos="24.57" departSpeed="max" arrivalLane="0" arrivalPos="57.81">
        <route edges="-gneE81 edge-east-EN gneE95 -gneE93 -gneE82 -gneE81 edge-east-EN edge-north-NW -gneE92 -gneE91"/>
    </vehicle>
    <vehicle id="-flow-random-route-f9047b04-d2c6-4b3e-b057-f66f150999ab--7026817598903204907-0-0.1" type="actor-impatient_car--8916547456550973882" depart="240.00" departLane="0" departPos="72.85" departSpeed="max" arrivalLane="0" arrivalPos="43.76">
        <route edges="-gneE93 -gneE82 -gneE81 edge-east-EN edge-north-NW edge-west-WS edge-south-SE edge-east-EN gneE95 -gneE93"/>
    </vehicle>
    <vehicle id="-flow-random-route-f9047b04-d2c6-4b3e-b057-f66f150999ab--7026817598903204907-0-1.1" type="actor-patient_car--138008658121073948" depart="240.00" departLane="0" departPos="72.85" departSpeed="max" arrivalLane="0" arrivalPos="43.76">
        <route edges="-gneE93 -gneE82 -gneE81 edge-east-EN edge-north-NW edge-west-WS edge-south-SE edge-east-EN gneE95 -gneE93"/>
    </vehicle>
    <vehicle id="-flow-random-route-0261df6f-5735-40c4-b073-6ef505bdbef6--7026817598903204907-2-0.2" type="actor-impatient_car--8916547456550973882" depart="480.00" departLane="0" departPos="20.17" departSpeed="max" arrivalLane="0" arrivalPos="48.10">
        <route edges="gneE95 -gneE93 -gneE82 -gneE81 edge-east-EN gneE95 gneE94 gneE91 gneE92 edge-west-WS"/>
    </vehicle>
    <vehicle id="-flow-random-route-0261df6f-5735-40c4-b073-6ef505bdbef6--7026817598903204907-2-1.2" type="actor-patient_car--138008658121073948" depart="480.00" departLane="0" departPos="20.17" departSpeed="max" arrivalLane="0" arrivalPos="48.10">
        <route edges="gneE95 -gneE93 -gneE82 -gneE81 edge-east-EN gneE95 gneE94 gneE91 gneE92 edge-west-WS"/>
    </vehicle>
    <vehicle id="-flow-random-route-15744175-3beb-491f-888f-53ec05ef3974--7026817598903204907-6-0.2" type="actor-impatient_car--8916547456550973882" depart="480.00" departLane="0" departPos="19.85" departSpeed="max" arrivalLane="0" arrivalPos="5.05">
        <route edges="edge-west-WS edge-south-SE gneE81 gneE82 gneE93 -gneE95 edge-north-NW -gneE92 -gneE91 -gneE94"/>
    </vehicle>
    <vehicle id="-flow-random-route-15744175-3beb-491f-888f-53ec05ef3974--7026817598903204907-6-1.2" type="actor-patient_car--138008658121073948" depart="480.00" departLane="0" departPos="19.85" departSpeed="max" arrivalLane="0" arrivalPos="5.05">
        <route edges="edge-west-WS edge-south-SE gneE81 gneE82 gneE93 -gneE95 edge-north-NW -gneE92 -gneE91 -gneE94"/>
    </vehicle>
    <vehicle id="-flow-random-route-2f757872-fbc7-44c8-9dcf-5a53d7d3c277--7026817598903204907-13-0.2" type="actor-impatient_car--8916547456550973882" depart="480.00" departLane="0" departPos="38.11" departSpeed="max" arrivalLane="1" arrivalPos="44.57">
        <route edges="-gneE95 edge-north-NW -gneE92 -gneE91 -gneE94 -gneE95 edge-north-NW edge-west-WS edge-south-SE edge-east-EN"/>
    </vehicle>
    <vehicle id="-flow-random-route-2f757872-fbc7-44c8-9dcf-5a53d7d3c277--7026817598903204907-13-1.2" type="actor-patient_car--138008658121073948" depart="480.00" departLane="0" departPos="38.11" departSpeed="max" arrivalLane="1" arrivalPos="44.57">
        <route edges="-gneE95 edge-north-NW -gneE92 -gneE91 -gneE94 -gneE95 edge-north-NW edge-west-WS edge-south-SE edge-east-EN"/>
    </vehicle>
    <vehicle id="-flow-random-route-4451994a-d983-4756-bdce-abc6fca5a37b--7026817598903204907-1-0.2" type="actor-impatient_car--8916547456550973882" depart="480.00" departLane="0" departPos="26.48" departSpeed="max" arrivalLane="0" arrivalPos="83.04">
        <route edges="-gneE81 edge-east-EN gneE95 gneE94 gneE91 gneE92 edge-west-WS edge-south-SE gneE81 gneE82"/>
    </vehicle>
    <vehicle id="-flow-random-route-4451994a-d983-4756-bdce-abc6fca5a37b--7026817598903204907-1-1.2" type="actor-patient_car--138008658121073948" depart="480.00" departLane="0" departPos="26.48" departSpeed="max" arrivalLane="0" arrivalPos="83.04">
        <route edges="-gneE81 edge-east-EN gneE95 gneE94 gneE91 gneE92 edge-west-WS edge-south-SE gneE81 gneE82"/>
    </vehicle>