<?xml version="1.0" encoding="UTF-8"?>

<!-- generated on Fri Sep 18 09:13:17 2020 by Eclipse SUMO duarouter Version 1.6.0
<configuration xmlns:xsi="http://www.w3.org/2001/XMLSchema-instance" xsi:noNamespaceSchemaLocation="http://sumo.dlr.de/xsd/duarouterConfiguration.xsd">

    <input>
        <net-file value="demo1_4_triangle/map.net.xml"/>
        <route-files value="/tmp/tmpid_kihs0/trips.trips.xml"/>
    </input>

    <output>
        <output-file value="demo1_4_triangle/traffic/30_patient_car.rou.xml"/>
        <alternatives-output value="demo1_4_triangle/traffic/30_patient_car.rou.alt.xml"/>
    </output>

    <processing>
        <unsorted-input value="true"/>
        <repair value="true"/>
    </processing>

    <report>
        <error-log value="/tmp/smarts/_duarouter_routing/traffic/30_patient_car.log"/>
        <no-step-log value="true"/>
    </report>

    <random_number>
        <seed value="42"/>
    </random_number>

</configuration>
-->

<routes xmlns:xsi="http://www.w3.org/2001/XMLSchema-instance" xsi:noNamespaceSchemaLocation="http://sumo.dlr.de/xsd/routes_file.xsd">
    <vType id="actor-car--608898033940048508" minGap="2.50" speedFactor="normc(0.50,0.20,0.20,2.00)" vClass="passenger" impatience="0.50" lcCooperative="0.5" lcImpatience="0" jmDriveAfterYellowTime="1.0" accel="2.6" decel="4.5" sigma="0.5"/>
    <vehicle id="-flow-random-route-0229e821-b3a5-49e1-ad89-23fa2eefd444-2695409269752004871-14-0.0" type="actor-car--608898033940048508" depart="0.00" departLane="0" departPos="184.31" departSpeed="max" arrivalLane="0" arrivalPos="96.28">
        <route edges="gneE7 gneE8 gneE6 gneE7"/>
    </vehicle>
    <vehicle id="-flow-random-route-052f0b10-ab00-4808-97d2-116e2c9e106b-2695409269752004871-23-0.0" type="actor-car--608898033940048508" depart="0.00" departLane="0" departPos="40.26" departSpeed="max" arrivalLane="0" arrivalPos="205.40">
        <route edges="gneE6 gneE7 gneE8 gneE6"/>
    </vehicle>
    <vehicle id="-flow-random-route-0b81ee00-b2cd-4cdb-b9fe-fc8aef845757-2695409269752004871-22-0.0" type="actor-car--608898033940048508" depart="0.00" departLane="0" departPos="60.43" departSpeed="max" arrivalLane="0" arrivalPos="176.78">
        <route edges="-gneE6 -gneE8 -gneE7 -gneE6"/>
    </vehicle>
    <vehicle id="-flow-random-route-0d6364a3-5530-4ca7-8c38-50ec6d604bdf-2695409269752004871-5-0.0" type="actor-car--608898033940048508" depart="0.00" departLane="0" departPos="122.42" departSpeed="max" arrivalLane="0" arrivalPos="9.72">
        <route edges="gneE6 gneE7 gneE8 gneE6"/>
    </vehicle>
    <vehicle id="-flow-random-route-1c7ec510-387e-467d-8a95-7932dad8c9c0-2695409269752004871-9-0.0" type="actor-car--608898033940048508" depart="0.00" departLane="0" departPos="1.52" departSpeed="max" arrivalLane="0" arrivalPos="48.54">
        <route edges="gneE6 gneE7 gneE8 gneE6"/>
    </vehicle>
    <vehicle id="-flow-random-route-1cf07bf2-915c-4466-ad89-94c67fa08524-2695409269752004871-6-0.0" type="actor-car--608898033940048508" depart="0.00" departLane="0" departPos="24.82" departSpeed="max" arrivalLane="0" arrivalPos="86.71">
        <route edges="gneE7 gneE8 gneE6 gneE7"/>
    </vehicle>
    <vehicle id="-flow-random-route-2089d438-78c6-4af2-bf19-4fc947da4fc0-2695409269752004871-3-0.0" type="actor-car--608898033940048508" depart="0.00" departLane="0" departPos="147.62" departSpeed="max" arrivalLane="0" arrivalPos="33.36">
        <route edges="gneE7 gneE8 gneE6 gneE7"/>
    </vehicle>
    <vehicle id="-flow-random-route-23e24120-3ae9-48ce-8600-75100f55e82d-2695409269752004871-21-0.0" type="actor-car--608898033940048508" depart="0.00" departLane="0" departPos="65.36" departSpeed="max" arrivalLane="0" arrivalPos="190.60">
        <route edges="gneE6 gneE7 gneE8 gneE6"/>
    </vehicle>
    <vehicle id="-flow-random-route-3183c4b2-5bf1-4e4c-a6bc-bb85128665ef-2695409269752004871-2-0.0" type="actor-car--608898033940048508" depart="0.00" departLane="0" departPos="4.63" departSpeed="max" arrivalLane="0" arrivalPos="186.59">
        <route edges="gneE7 gneE8 gneE6 gneE7"/>
    </vehicle>
    <vehicle id="-flow-random-route-358f3804-d809-408d-8690-05ba95d25331-2695409269752004871-20-0.0" type="actor-car--608898033940048508" depart="0.00" departLane="0" departPos="186.32" departSpeed="max" arrivalLane="0" arrivalPos="50.77">
        <route edges="-gneE6 -gneE8 -gneE7 -gneE6"/>
    </vehicle>
    <vehicle id="-flow-random-route-3785bab0-cd59-4f6c-9ab6-f9e100f60f06-2695409269752004871-15-0.0" type="actor-car--608898033940048508" depart="0.00" departLane="0" departPos="40.37" departSpeed="max" arrivalLane="0" arrivalPos="139.72">
        <route edges="-gneE6 -gneE8 -gneE7 -gneE6"/>
    </vehicle>
    <vehicle id="-flow-random-route-3aee43e9-107c-42f2-acef-fd8c343fa09e-2695409269752004871-0-0.0" type="actor-car--608898033940048508" depart="0.00" departLane="0" departPos="88.18" departSpeed="max" arrivalLane="0" arrivalPos="128.13">
        <route edges="-gneE7 -gneE6 -gneE8 -gneE7"/>
    </vehicle>
    <vehicle id="-flow-random-route-4f3ccced-6201-4fb5-a0b4-0cf8886d8fda-2695409269752004871-19-0.0" type="actor-car--608898033940048508" depart="0.00" departLane="0" departPos="139.68" departSpeed="max" arrivalLane="0" arrivalPos="148.37">
        <route edges="-gneE7 -gneE6 -gneE8 -gneE7"/>
    </vehicle>
    <vehicle id="-flow-random-route-518bba04-0211-4122-843b-9c86ddcccce7-2695409269752004871-16-0.0" type="actor-car--608898033940048508" depart="0.00" departLane="0" departPos="128.05" departSpeed="max" arrivalLane="0" arrivalPos="76.57">
        <route edges="gneE7 gneE8 gneE6 gneE7"/>
    </vehicle>
    <vehicle id="-flow-random-route-59f9ee22-c221-4087-8543-c42f2a38157c-2695409269752004871-28-0.0" type="actor-car--608898033940048508" depart="0.00" departLane="0" departPos="202.96" departSpeed="max" arrivalLane="0" arrivalPos="21.67">
        <route edges="gneE8 gneE6 gneE7 gneE8"/>
    </vehicle>
    <vehicle id="-flow-random-route-600e5a0b-45b6-4d89-b9b3-512612dd0a04-2695409269752004871-8-0.0" type="actor-car--608898033940048508" depart="0.00" departLane="0" departPos="135.09" departSpeed="max" arrivalLane="0" arrivalPos="34.26">
        <route edges="gneE8 gneE6 gneE7 gneE8"/>
    </vehicle>
    <vehicle id="-flow-random-route-6c2a4f99-43fd-4dd3-b188-13979ef9454b-2695409269752004871-29-0.0" type="actor-car--608898033940048508" depart="0.00" departLane="0" departPos="190.24" departSpeed="max" arrivalLane="0" arrivalPos="95.43">
        <route edges="gneE8 gneE6 gneE7 gneE8"/>
    </vehicle>
    <vehicle id="-flow-random-route-6ee5be4b-a0f4-4115-a819-addbc9939b5e-2695409269752004871-18-0.0" type="actor-car--608898033940048508" depart="0.00" departLane="0" departPos="77.07" departSpeed="max" arrivalLane="0" arrivalPos="40.54">
        <route edges="-gneE7 -gneE6 -gneE8 -gneE7"/>
    </vehicle>
    <vehicle id="-flow-random-route-74b34b9d-68ae-43c1-8a1d-17818d7dab71-2695409269752004871-24-0.0" type="actor-car--608898033940048508" depart="0.00" departLane="0" departPos="64.71" departSpeed="max" arrivalLane="0" arrivalPos="47.27">
        <route edges="gneE6 gneE7 gneE8 gneE6"/>
    </vehicle>
    <vehicle id="-flow-random-route-7711a55d-8455-4117-844b-b785e14f8610-2695409269752004871-1-0.0" type="actor-car--608898033940048508" depart="0.00" departLane="0" departPos="158.39" departSpeed="max" arrivalLane="0" arrivalPos="190.37">
        <route edges="-gneE6 -gneE8 -gneE7 -gneE6"/>
    </vehicle>
    <vehicle id="-flow-random-route-800c3b71-7dd4-4f00-ac31-92309d43128e-2695409269752004871-17-0.0" type="actor-car--608898033940048508" depart="0.00" departLane="0" departPos="185.96" departSpeed="max" arrivalLane="0" arrivalPos="37.86">
        <route edges="gneE8 gneE6 gneE7 gneE8"/>
    </vehicle>
    <vehicle id="-flow-random-route-9deabb84-8cd2-490b-a9f0-9f65b496f153-2695409269752004871-10-0.0" type="actor-car--608898033940048508" depart="0.00" departLane="0" departPos="174.25" departSpeed="max" arrivalLane="0" arrivalPos="85.06">
        <route edges="gneE8 gneE6 gneE7 gneE8"/>
    </vehicle>
    <vehicle id="-flow-random-route-a1d2a007-7d4c-4ea2-82b7-e6d9ba73f3df-2695409269752004871-25-0.0" type="actor-car--608898033940048508" depart="0.00" departLane="0" departPos="39.73" departSpeed="max" arrivalLane="0" arrivalPos="133.09">
        <route edges="-gneE7 -gneE6 -gneE8 -gneE7"/>
    </vehicle>
    <vehicle id="-flow-random-route-a8384628-7681-4997-804e-891f47f1c5b0-2695409269752004871-27-0.0" type="actor-car--608898033940048508" depart="0.00" departLane="0" departPos="107.15" departSpeed="max" arrivalLane="0" arrivalPos="119.00">
        <route edges="-gneE8 -gneE7 -gneE6 -gneE8"/>
    </vehicle>
    <vehicle id="-flow-random-route-a9d0f4f5-cbb0-416d-918d-08c23b7473c8-2695409269752004871-12-0.0" type="actor-car--608898033940048508" depart="0.00" departLane="0" departPos="176.16" departSpeed="max" arrivalLane="0" arrivalPos="135.20">
        <route edges="-gneE7 -gneE6 -gneE8 -gneE7"/>
    </vehicle>
    <vehicle id="-flow-random-route-c21c5feb-e486-4acc-87b2-b1b03b1277ad-2695409269752004871-4-0.0" type="actor-car--608898033940048508" depart="0.00" departLane="0" departPos="150.28" departSpeed="max" arrivalLane="0" arrivalPos="110.24">
        <route edges="-gneE8 -gneE7 -gneE6 -gneE8"/>
    </vehicle>
    <vehicle id="-flow-random-route-caaaebcb-ca2e-4044-aa48-98814b73087f-2695409269752004871-26-0.0" type="actor-car--608898033940048508" depart="0.00" departLane="0" departPos="76.31" departSpeed="max" arrivalLane="0" arrivalPos="105.14">
        <route edges="gneE7 gneE8 gneE6 gneE7"/>
    </vehicle>
    <vehicle id="-flow-random-route-e87b8fe6-d8ae-4e61-8b50-c147791009bf-2695409269752004871-13-0.0" type="actor-car--608898033940048508" depart="0.00" departLane="0" departPos="128.24" departSpeed="max" arrivalLane="0" arrivalPos="43.17">
        <route edges="gneE8 gneE6 gneE7 gneE8"/>
    </vehicle>
    <vehicle id="-flow-random-route-f9d204d4-2259-4cca-b102-e5f56bbb3c21-2695409269752004871-11-0.0" type="actor-car--608898033940048508" depart="0.00" departLane="0" departPos="40.33" departSpeed="max" arrivalLane="0" arrivalPos="29.72">
        <route edges="-gneE8 -gneE7 -gneE6 -gneE8"/>
    </vehicle>
    <vehicle id="-flow-random-route-fa5d0804-19c6-4937-8169-a1bfe04eb14a-2695409269752004871-7-0.0" type="actor-car--608898033940048508" depart="0.00" departLane="0" departPos="81.58" departSpeed="max" arrivalLane="0" arrivalPos="112.19">
        <route edges="gneE6 gneE7 gneE8 gneE6"/>
    </vehicle>
    <vehicle id="-flow-random-route-0229e821-b3a5-49e1-ad89-23fa2eefd444-2695409269752004871-14-0.1" type="actor-car--608898033940048508" depart="120.00" departLane="0" departPos="184.31" departSpeed="max" arrivalLane="0" arrivalPos="96.28">
        <route edges="gneE7 gneE8 gneE6 gneE7"/>
    </vehicle>
    <vehicle id="-flow-random-route-052f0b10-ab00-4808-97d2-116e2c9e106b-2695409269752004871-23-0.1" type="actor-car--608898033940048508" depart="120.00" departLane="0" departPos="40.26" departSpeed="max" arrivalLane="0" arrivalPos="205.40">
        <route edges="gneE6 gneE7 gneE8 gneE6"/>
    </vehicle>
    <vehicle id="-flow-random-route-0b81ee00-b2cd-4cdb-b9fe-fc8aef845757-2695409269752004871-22-0.1" type="actor-car--608898033940048508" depart="120.00" departLane="0" departPos="60.43" departSpeed="max" arrivalLane="0" arrivalPos="176.78">
        <route edges="-gneE6 -gneE8 -gneE7 -gneE6"/>
    </vehicle>
    <vehicle id="-flow-random-route-0d6364a3-5530-4ca7-8c38-50ec6d604bdf-2695409269752004871-5-0.1" type="actor-car--608898033940048508" depart="120.00" departLane="0" departPos="122.42" departSpeed="max" arrivalLane="0" arrivalPos="9.72">
        <route edges="gneE6 gneE7 gneE8 gneE6"/>
    </vehicle>
    <vehicle id="-flow-random-route-1c7ec510-387e-467d-8a95-7932dad8c9c0-2695409269752004871-9-0.1" type="actor-car--608898033940048508" depart="120.00" departLane="0" departPos="1.52" departSpeed="max" arrivalLane="0" arrivalPos="48.54">
        <route edges="gneE6 gneE7 gneE8 gneE6"/>
    </vehicle>
    <vehicle id="-flow-random-route-1cf07bf2-915c-4466-ad89-94c67fa08524-2695409269752004871-6-0.1" type="actor-car--608898033940048508" depart="120.00" departLane="0" departPos="24.82" departSpeed="max" arrivalLane="0" arrivalPos="86.71">
        <route edges="gneE7 gneE8 gneE6 gneE7"/>
    </vehicle>
    <vehicle id="-flow-random-route-2089d438-78c6-4af2-bf19-4fc947da4fc0-2695409269752004871-3-0.1" type="actor-car--608898033940048508" depart="120.00" departLane="0" departPos="147.62" departSpeed="max" arrivalLane="0" arrivalPos="33.36">
        <route edges="gneE7 gneE8 gneE6 gneE7"/>
    </vehicle>
    <vehicle id="-flow-random-route-23e24120-3ae9-48ce-8600-75100f55e82d-2695409269752004871-21-0.1" type="actor-car--608898033940048508" depart="120.00" departLane="0" departPos="65.36" departSpeed="max" arrivalLane="0" arrivalPos="190.60">
        <route edges="gneE6 gneE7 gneE8 gneE6"/>
    </vehicle>
    <vehicle id="-flow-random-route-3183c4b2-5bf1-4e4c-a6bc-bb85128665ef-2695409269752004871-2-0.1" type="actor-car--608898033940048508" depart="120.00" departLane="0" departPos="4.63" departSpeed="max" arrivalLane="0" arrivalPos="186.59">
        <route edges="gneE7 gneE8 gneE6 gneE7"/>
    </vehicle>
    <vehicle id="-flow-random-route-358f3804-d809-408d-8690-05ba95d25331-2695409269752004871-20-0.1" type="actor-car--608898033940048508" depart="120.00" departLane="0" departPos="186.32" departSpeed="max" arrivalLane="0" arrivalPos="50.77">
        <route edges="-gneE6 -gneE8 -gneE7 -gneE6"/>
    </vehicle>
    <vehicle id="-flow-random-route-3785bab0-cd59-4f6c-9ab6-f9e100f60f06-2695409269752004871-15-0.1" type="actor-car--608898033940048508" depart="120.00" departLane="0" departPos="40.37" departSpeed="max" arrivalLane="0" arrivalPos="139.72">
        <route edges="-gneE6 -gneE8 -gneE7 -gneE6"/>
    </vehicle>
    <vehicle id="-flow-random-route-3aee43e9-107c-42f2-acef-fd8c343fa09e-2695409269752004871-0-0.1" type="actor-car--608898033940048508" depart="120.00" departLane="0" departPos="88.18" departSpeed="max" arrivalLane="0" arrivalPos="128.13">
        <route edges="-gneE7 -gneE6 -gneE8 -gneE7"/>
    </vehicle>
    <vehicle id="-flow-random-route-4f3ccced-6201-4fb5-a0b4-0cf8886d8fda-2695409269752004871-19-0.1" type="actor-car--608898033940048508" depart="120.00" departLane="0" departPos="139.68" departSpeed="max" arrivalLane="0" arrivalPos="148.37">
        <route edges="-gneE7 -gneE6 -gneE8 -gneE7"/>
    </vehicle>
    <vehicle id="-flow-random-route-518bba04-0211-4122-843b-9c86ddcccce7-2695409269752004871-16-0.1" type="actor-car--608898033940048508" depart="120.00" departLane="0" departPos="128.05" departSpeed="max" arrivalLane="0" arrivalPos="76.57">
        <route edges="gneE7 gneE8 gneE6 gneE7"/>
    </vehicle>
    <vehicle id="-flow-random-route-59f9ee22-c221-4087-8543-c42f2a38157c-2695409269752004871-28-0.1" type="actor-car--608898033940048508" depart="120.00" departLane="0" departPos="202.96" departSpeed="max" arrivalLane="0" arrivalPos="21.67">
        <route edges="gneE8 gneE6 gneE7 gneE8"/>
    </vehicle>
    <vehicle id="-flow-random-route-600e5a0b-45b6-4d89-b9b3-512612dd0a04-2695409269752004871-8-0.1" type="actor-car--608898033940048508" depart="120.00" departLane="0" departPos="135.09" departSpeed="max" arrivalLane="0" arrivalPos="34.26">
        <route edges="gneE8 gneE6 gneE7 gneE8"/>
    </vehicle>
    <vehicle id="-flow-random-route-6c2a4f99-43fd-4dd3-b188-13979ef9454b-2695409269752004871-29-0.1" type="actor-car--608898033940048508" depart="120.00" departLane="0" departPos="190.24" departSpeed="max" arrivalLane="0" arrivalPos="95.43">
        <route edges="gneE8 gneE6 gneE7 gneE8"/>
    </vehicle>
    <vehicle id="-flow-random-route-6ee5be4b-a0f4-4115-a819-addbc9939b5e-2695409269752004871-18-0.1" type="actor-car--608898033940048508" depart="120.00" departLane="0" departPos="77.07" departSpeed="max" arrivalLane="0" arrivalPos="40.54">
        <route edges="-gneE7 -gneE6 -gneE8 -gneE7"/>
    </vehicle>
    <vehicle id="-flow-random-route-74b34b9d-68ae-43c1-8a1d-17818d7dab71-2695409269752004871-24-0.1" type="actor-car--608898033940048508" depart="120.00" departLane="0" departPos="64.71" departSpeed="max" arrivalLane="0" arrivalPos="47.27">
        <route edges="gneE6 gneE7 gneE8 gneE6"/>
    </vehicle>
    <vehicle id="-flow-random-route-7711a55d-8455-4117-844b-b785e14f8610-2695409269752004871-1-0.1" type="actor-car--608898033940048508" depart="120.00" departLane="0" departPos="158.39" departSpeed="max" arrivalLane="0" arrivalPos="190.37">
        <route edges="-gneE6 -gneE8 -gneE7 -gneE6"/>
    </vehicle>
    <vehicle id="-flow-random-route-800c3b71-7dd4-4f00-ac31-92309d43128e-2695409269752004871-17-0.1" type="actor-car--608898033940048508" depart="120.00" departLane="0" departPos="185.96" departSpeed="max" arrivalLane="0" arrivalPos="37.86">
        <route edges="gneE8 gneE6 gneE7 gneE8"/>
    </vehicle>
    <vehicle id="-flow-random-route-9deabb84-8cd2-490b-a9f0-9f65b496f153-2695409269752004871-10-0.1" type="actor-car--608898033940048508" depart="120.00" departLane="0" departPos="174.25" departSpeed="max" arrivalLane="0" arrivalPos="85.06">
        <route edges="gneE8 gneE6 gneE7 gneE8"/>
    </vehicle>
    <vehicle id="-flow-random-route-a1d2a007-7d4c-4ea2-82b7-e6d9ba73f3df-2695409269752004871-25-0.1" type="actor-car--608898033940048508" depart="120.00" departLane="0" departPos="39.73" departSpeed="max" arrivalLane="0" arrivalPos="133.09">
        <route edges="-gneE7 -gneE6 -gneE8 -gneE7"/>
    </vehicle>
    <vehicle id="-flow-random-route-a8384628-7681-4997-804e-891f47f1c5b0-2695409269752004871-27-0.1" type="actor-car--608898033940048508" depart="120.00" departLane="0" departPos="107.15" departSpeed="max" arrivalLane="0" arrivalPos="119.00">
        <route edges="-gneE8 -gneE7 -gneE6 -gneE8"/>
    </vehicle>
    <vehicle id="-flow-random-route-a9d0f4f5-cbb0-416d-918d-08c23b7473c8-2695409269752004871-12-0.1" type="actor-car--608898033940048508" depart="120.00" departLane="0" departPos="176.16" departSpeed="max" arrivalLane="0" arrivalPos="135.20">
        <route edges="-gneE7 -gneE6 -gneE8 -gneE7"/>
    </vehicle>
    <vehicle id="-flow-random-route-c21c5feb-e486-4acc-87b2-b1b03b1277ad-2695409269752004871-4-0.1" type="actor-car--608898033940048508" depart="120.00" departLane="0" departPos="150.28" departSpeed="max" arrivalLane="0" arrivalPos="110.24">
        <route edges="-gneE8 -gneE7 -gneE6 -gneE8"/>
    </vehicle>
    <vehicle id="-flow-random-route-caaaebcb-ca2e-4044-aa48-98814b73087f-2695409269752004871-26-0.1" type="actor-car--608898033940048508" depart="120.00" departLane="0" departPos="76.31" departSpeed="max" arrivalLane="0" arrivalPos="105.14">
        <route edges="gneE7 gneE8 gneE6 gneE7"/>
    </vehicle>
    <vehicle id="-flow-random-route-e87b8fe6-d8ae-4e61-8b50-c147791009bf-2695409269752004871-13-0.1" type="actor-car--608898033940048508" depart="120.00" departLane="0" departPos="128.24" departSpeed="max" arrivalLane="0" arrivalPos="43.17">
        <route edges="gneE8 gneE6 gneE7 gneE8"/>
    </vehicle>
    <vehicle id="-flow-random-route-f9d204d4-2259-4cca-b102-e5f56bbb3c21-2695409269752004871-11-0.1" type="actor-car--608898033940048508" depart="120.00" departLane="0" departPos="40.33" departSpeed="max" arrivalLane="0" arrivalPos="29.72">
        <route edges="-gneE8 -gneE7 -gneE6 -gneE8"/>
    </vehicle>
    <vehicle id="-flow-random-route-fa5d0804-19c6-4937-8169-a1bfe04eb14a-2695409269752004871-7-0.1" type="actor-car--608898033940048508" depart="120.00" departLane="0" departPos="81.58" departSpeed="max" arrivalLane="0" arrivalPos="112.19">
        <route edges="gneE6 gneE7 gneE8 gneE6"/>
    </vehicle>
    <vehicle id="-flow-random-route-0229e821-b3a5-49e1-ad89-23fa2eefd444-2695409269752004871-14-0.2" type="actor-car--608898033940048508" depart="240.00" departLane="0" departPos="184.31" departSpeed="max" arrivalLane="0" arrivalPos="96.28">
        <route edges="gneE7 gneE8 gneE6 gneE7"/>
    </vehicle>
    <vehicle id="-flow-random-route-052f0b10-ab00-4808-97d2-116e2c9e106b-2695409269752004871-23-0.2" type="actor-car--608898033940048508" depart="240.00" departLane="0" departPos="40.26" departSpeed="max" arrivalLane="0" arrivalPos="205.40">
        <route edges="gneE6 gneE7 gneE8 gneE6"/>
    </vehicle>
    <vehicle id="-flow-random-route-0b81ee00-b2cd-4cdb-b9fe-fc8aef845757-2695409269752004871-22-0.2" type="actor-car--608898033940048508" depart="240.00" departLane="0" departPos="60.43" departSpeed="max" arrivalLane="0" arrivalPos="176.78">
        <route edges="-gneE6 -gneE8 -gneE7 -gneE6"/>
    </vehicle>
    <vehicle id="-flow-random-route-0d6364a3-5530-4ca7-8c38-50ec6d604bdf-2695409269752004871-5-0.2" type="actor-car--608898033940048508" depart="240.00" departLane="0" departPos="122.42" departSpeed="max" arrivalLane="0" arrivalPos="9.72">
        <route edges="gneE6 gneE7 gneE8 gneE6"/>
    </vehicle>
    <vehicle id="-flow-random-route-1c7ec510-387e-467d-8a95-7932dad8c9c0-2695409269752004871-9-0.2" type="actor-car--608898033940048508" depart="240.00" departLane="0" departPos="1.52" departSpeed="max" arrivalLane="0" arrivalPos="48.54">
        <route edges="gneE6 gneE7 gneE8 gneE6"/>
    </vehicle>
    <vehicle id="-flow-random-route-1cf07bf2-915c-4466-ad89-94c67fa08524-2695409269752004871-6-0.2" type="actor-car--608898033940048508" depart="240.00" departLane="0" departPos="24.82" departSpeed="max" arrivalLane="0" arrivalPos="86.71">
        <route edges="gneE7 gneE8 gneE6 gneE7"/>
    </vehicle>
    <vehicle id="-flow-random-route-2089d438-78c6-4af2-bf19-4fc947da4fc0-2695409269752004871-3-0.2" type="actor-car--608898033940048508" depart="240.00" departLane="0" departPos="147.62" departSpeed="max" arrivalLane="0" arrivalPos="33.36">
        <route edges="gneE7 gneE8 gneE6 gneE7"/>
    </vehicle>
    <vehicle id="-flow-random-route-23e24120-3ae9-48ce-8600-75100f55e82d-2695409269752004871-21-0.2" type="actor-car--608898033940048508" depart="240.00" departLane="0" departPos="65.36" departSpeed="max" arrivalLane="0" arrivalPos="190.60">
        <route edges="gneE6 gneE7 gneE8 gneE6"/>
    </vehicle>
    <vehicle id="-flow-random-route-3183c4b2-5bf1-4e4c-a6bc-bb85128665ef-2695409269752004871-2-0.2" type="actor-car--608898033940048508" depart="240.00" departLane="0" departPos="4.63" departSpeed="max" arrivalLane="0" arrivalPos="186.59">
        <route edges="gneE7 gneE8 gneE6 gneE7"/>
    </vehicle>
    <vehicle id="-flow-random-route-358f3804-d809-408d-8690-05ba95d25331-2695409269752004871-20-0.2" type="actor-car--608898033940048508" depart="240.00" departLane="0" departPos="186.32" departSpeed="max" arrivalLane="0" arrivalPos="50.77">
        <route edges="-gneE6 -gneE8 -gneE7 -gneE6"/>
    </vehicle>
    <vehicle id="-flow-random-route-3785bab0-cd59-4f6c-9ab6-f9e100f60f06-2695409269752004871-15-0.2" type="actor-car--608898033940048508" depart="240.00" departLane="0" departPos="40.37" departSpeed="max" arrivalLane="0" arrivalPos="139.72">
        <route edges="-gneE6 -gneE8 -gneE7 -gneE6"/>
    </vehicle>
    <vehicle id="-flow-random-route-3aee43e9-107c-42f2-acef-fd8c343fa09e-2695409269752004871-0-0.2" type="actor-car--608898033940048508" depart="240.00" departLane="0" departPos="88.18" departSpeed="max" arrivalLane="0" arrivalPos="128.13">
        <route edges="-gneE7 -gneE6 -gneE8 -gneE7"/>
    </vehicle>
    <vehicle id="-flow-random-route-4f3ccced-6201-4fb5-a0b4-0cf8886d8fda-2695409269752004871-19-0.2" type="actor-car--608898033940048508" depart="240.00" departLane="0" departPos="139.68" departSpeed="max" arrivalLane="0" arrivalPos="148.37">
        <route edges="-gneE7 -gneE6 -gneE8 -gneE7"/>
    </vehicle>
    <vehicle id="-flow-random-route-518bba04-0211-4122-843b-9c86ddcccce7-2695409269752004871-16-0.2" type="actor-car--608898033940048508" depart="240.00" departLane="0" departPos="128.05" departSpeed="max" arrivalLane="0" arrivalPos="76.57">
        <route edges="gneE7 gneE8 gneE6 gneE7"/>
    </vehicle>
    <vehicle id="-flow-random-route-59f9ee22-c221-4087-8543-c42f2a38157c-2695409269752004871-28-0.2" type="actor-car--608898033940048508" depart="240.00" departLane="0" departPos="202.96" departSpeed="max" arrivalLane="0" arrivalPos="21.67">
        <route edges="gneE8 gneE6 gneE7 gneE8"/>
    </vehicle>
    <vehicle id="-flow-random-route-600e5a0b-45b6-4d89-b9b3-512612dd0a04-2695409269752004871-8-0.2" type="actor-car--608898033940048508" depart="240.00" departLane="0" departPos="135.09" departSpeed="max" arrivalLane="0" arrivalPos="34.26">
        <route edges="gneE8 gneE6 gneE7 gneE8"/>
    </vehicle>
    <vehicle id="-flow-random-route-6c2a4f99-43fd-4dd3-b188-13979ef9454b-2695409269752004871-29-0.2" type="actor-car--608898033940048508" depart="240.00" departLane="0" departPos="190.24" departSpeed="max" arrivalLane="0" arrivalPos="95.43">
        <route edges="gneE8 gneE6 gneE7 gneE8"/>
    </vehicle>
    <vehicle id="-flow-random-route-6ee5be4b-a0f4-4115-a819-addbc9939b5e-2695409269752004871-18-0.2" type="actor-car--608898033940048508" depart="240.00" departLane="0" departPos="77.07" departSpeed="max" arrivalLane="0" arrivalPos="40.54">
        <route edges="-gneE7 -gneE6 -gneE8 -gneE7"/>
    </vehicle>
    <vehicle id="-flow-random-route-74b34b9d-68ae-43c1-8a1d-17818d7dab71-2695409269752004871-24-0.2" type="actor-car--608898033940048508" depart="240.00" departLane="0" departPos="64.71" departSpeed="max" arrivalLane="0" arrivalPos="47.27">
        <route edges="gneE6 gneE7 gneE8 gneE6"/>
    </vehicle>
    <vehicle id="-flow-random-route-7711a55d-8455-4117-844b-b785e14f8610-2695409269752004871-1-0.2" type="actor-car--608898033940048508" depart="240.00" departLane="0" departPos="158.39" departSpeed="max" arrivalLane="0" arrivalPos="190.37">
        <route edges="-gneE6 -gneE8 -gneE7 -gneE6"/>
    </vehicle>
    <vehicle id="-flow-random-route-800c3b71-7dd4-4f00-ac31-92309d43128e-2695409269752004871-17-0.2" type="actor-car--608898033940048508" depart="240.00" departLane="0" departPos="185.96" departSpeed="max" arrivalLane="0" arrivalPos="37.86">
        <route edges="gneE8 gneE6 gneE7 gneE8"/>
    </vehicle>
    <vehicle id="-flow-random-route-9deabb84-8cd2-490b-a9f0-9f65b496f153-2695409269752004871-10-0.2" type="actor-car--608898033940048508" depart="240.00" departLane="0" departPos="174.25" departSpeed="max" arrivalLane="0" arrivalPos="85.06">
        <route edges="gneE8 gneE6 gneE7 gneE8"/>
    </vehicle>
    <vehicle id="-flow-random-route-a1d2a007-7d4c-4ea2-82b7-e6d9ba73f3df-2695409269752004871-25-0.2" type="actor-car--608898033940048508" depart="240.00" departLane="0" departPos="39.73" departSpeed="max" arrivalLane="0" arrivalPos="133.09">
        <route edges="-gneE7 -gneE6 -gneE8 -gneE7"/>
    </vehicle>
    <vehicle id="-flow-random-route-a8384628-7681-4997-804e-891f47f1c5b0-2695409269752004871-27-0.2" type="actor-car--608898033940048508" depart="240.00" departLane="0" departPos="107.15" departSpeed="max" arrivalLane="0" arrivalPos="119.00">
        <route edges="-gneE8 -gneE7 -gneE6 -gneE8"/>
    </vehicle>
    <vehicle id="-flow-random-route-a9d0f4f5-cbb0-416d-918d-08c23b7473c8-2695409269752004871-12-0.2" type="actor-car--608898033940048508" depart="240.00" departLane="0" departPos="176.16" departSpeed="max" arrivalLane="0" arrivalPos="135.20">
        <route edges="-gneE7 -gneE6 -gneE8 -gneE7"/>
    </vehicle>
    <vehicle id="-flow-random-route-c21c5feb-e486-4acc-87b2-b1b03b1277ad-2695409269752004871-4-0.2" type="actor-car--608898033940048508" depart="240.00" departLane="0" departPos="150.28" departSpeed="max" arrivalLane="0" arrivalPos="110.24">
        <route edges="-gneE8 -gneE7 -gneE6 -gneE8"/>
    </vehicle>
    <vehicle id="-flow-random-route-caaaebcb-ca2e-4044-aa48-98814b73087f-2695409269752004871-26-0.2" type="actor-car--608898033940048508" depart="240.00" departLane="0" departPos="76.31" departSpeed="max" arrivalLane="0" arrivalPos="105.14">
        <route edges="gneE7 gneE8 gneE6 gneE7"/>
    </vehicle>
    <vehicle id="-flow-random-route-e87b8fe6-d8ae-4e61-8b50-c147791009bf-2695409269752004871-13-0.2" type="actor-car--608898033940048508" depart="240.00" departLane="0" departPos="128.24" departSpeed="max" arrivalLane="0" arrivalPos="43.17">
        <route edges="gneE8 gneE6 gneE7 gneE8"/>
    </vehicle>
    <vehicle id="-flow-random-route-f9d204d4-2259-4cca-b102-e5f56bbb3c21-2695409269752004871-11-0.2" type="actor-car--608898033940048508" depart="240.00" departLane="0" departPos="40.33" departSpeed="max" arrivalLane="0" arrivalPos="29.72">
        <route edges="-gneE8 -gneE7 -gneE6 -gneE8"/>
    </vehicle>
    <vehicle id="-flow-random-route-fa5d0804-19c6-4937-8169-a1bfe04eb14a-2695409269752004871-7-0.2" type="actor-car--608898033940048508" depart="240.00" departLane="0" departPos="81.58" departSpeed="max" arrivalLane="0" arrivalPos="112.19">
        <route edges="gneE6 gneE7 gneE8 gneE6"/>
    </vehicle>
    <vehicle id="-flow-random-route-0229e821-b3a5-49e1-ad89-23fa2eefd444-2695409269752004871-14-0.3" type="actor-car--608898033940048508" depart="360.00" departLane="0" departPos="184.31" departSpeed="max" arrivalLane="0" arrivalPos="96.28">
        <route edges="gneE7 gneE8 gneE6 gneE7"/>
    </vehicle>
    <vehicle id="-flow-random-route-052f0b10-ab00-4808-97d2-116e2c9e106b-2695409269752004871-23-0.3" type="actor-car--608898033940048508" depart="360.00" departLane="0" departPos="40.26" departSpeed="max" arrivalLane="0" arrivalPos="205.40">
        <route edges="gneE6 gneE7 gneE8 gneE6"/>
    </vehicle>
    <vehicle id="-flow-random-route-0b81ee00-b2cd-4cdb-b9fe-fc8aef845757-2695409269752004871-22-0.3" type="actor-car--608898033940048508" depart="360.00" departLane="0" departPos="60.43" departSpeed="max" arrivalLane="0" arrivalPos="176.78">
        <route edges="-gneE6 -gneE8 -gneE7 -gneE6"/>
    </vehicle>