<?xml version="1.0" encoding="UTF-8"?>

<!-- generated on Sun Oct  4 03:13:25 2020 by Eclipse SUMO duarouter Version 1.6.0
<configuration xmlns:xsi="http://www.w3.org/2001/XMLSchema-instance" xsi:noNamespaceSchemaLocation="http://sumo.dlr.de/xsd/duarouterConfiguration.xsd">

    <input>
        <net-file value="/root/workspace/dataset_public/all_loop/all_loop_b/map.net.xml"/>
        <route-files value="/tmp/tmpnzqoqbdn/trips.trips.xml"/>
    </input>

    <output>
        <output-file value="/root/workspace/dataset_public/all_loop/all_loop_b/traffic/44_patient_car_0.5_impatient_car_0.5.rou.xml"/>
        <alternatives-output value="/root/workspace/dataset_public/all_loop/all_loop_b/traffic/44_patient_car_0.5_impatient_car_0.5.rou.alt.xml"/>
    </output>

    <processing>
        <unsorted-input value="true"/>
        <repair value="true"/>
    </processing>

    <report>
        <error-log value="/tmp/smarts/_duarouter_routing/traffic/44_patient_car_0.5_impatient_car_0.5.log"/>
        <no-step-log value="true"/>
    </report>

    <random_number>
        <seed value="104"/>
    </random_number>

</configuration>
-->

<routes xmlns:xsi="http://www.w3.org/2001/XMLSchema-instance" xsi:noNamespaceSchemaLocation="http://sumo.dlr.de/xsd/routes_file.xsd">
    <vType id="actor-impatient_car-5134858532229187494" minGap="2.50" speedFactor="normc(0.50,0.20,0.20,2.00)" vClass="passenger" impatience="0.50" lcCooperative="0.5" lcImpatience="0" jmDriveAfterYellowTime="1.0" accel="2.6" decel="4.5" sigma="0.5"/>
    <vehicle id="-flow-random-route-1a59da75-1983-40f7-9874-6af0a0c36038-1553990251163444248-4-0.0" type="actor-impatient_car-5134858532229187494" depart="0.00" departLane="0" departPos="17.73" departSpeed="max" arrivalLane="0" arrivalPos="7.19">
        <route edges="-gneE135 -gneE124 gneE100 gneE91 edge-east-EN -gneE140 gneE104 gneE105 edge-west-WS edge-south-SE"/>
    </vehicle>
    <vType id="actor-patient_car-2573927693849618546" minGap="2.50" speedFactor="normc(0.50,0.20,0.20,2.00)" vClass="passenger" impatience="1.00" lcCooperative="0.25" lcImpatience="1" jmDriveAfterYellowTime="1.0" jmDriveAfterRedTime="1.5" accel="2.6" decel="4.5" sigma="0.5"/>
    <vehicle id="-flow-random-route-1a59da75-1983-40f7-9874-6af0a0c36038-1553990251163444248-4-1.0" type="actor-patient_car-2573927693849618546" depart="0.00" departLane="0" departPos="17.73" departSpeed="max" arrivalLane="0" arrivalPos="7.19">
        <route edges="-gneE135 -gneE124 gneE100 gneE91 edge-east-EN -gneE140 gneE104 gneE105 edge-west-WS edge-south-SE"/>
    </vehicle>
    <vehicle id="-flow-random-route-1ce512a4-e257-4195-8000-07a674905f4b-1553990251163444248-11-0.0" type="actor-impatient_car-5134858532229187494" depart="0.00" departLane="0" departPos="86.81" departSpeed="max" arrivalLane="1" arrivalPos="18.94">
        <route edges="gneE129 gneE137 gneE138 gneE104 gneE105 edge-west-WS gneE143 gneE145 gneE146 gneE161"/>
    </vehicle>
    <vehicle id="-flow-random-route-1ce512a4-e257-4195-8000-07a674905f4b-1553990251163444248-11-1.0" type="actor-patient_car-2573927693849618546" depart="0.00" departLane="0" departPos="86.81" departSpeed="max" arrivalLane="1" arrivalPos="18.94">
        <route edges="gneE129 gneE137 gneE138 gneE104 gneE105 edge-west-WS gneE143 gneE145 gneE146 gneE161"/>
    </vehicle>
    <vehicle id="-flow-random-route-219ab24d-787a-480a-ac37-b190811d1f4e-1553990251163444248-1-0.0" type="actor-impatient_car-5134858532229187494" depart="0.00" departLane="0" departPos="3.26" departSpeed="max" arrivalLane="0" arrivalPos="105.35">
        <route edges="gneE125 gneE129 -gneE135 -gneE124 gneE100 gneE91 edge-east-EN -gneE140 -gneE138 -gneE137"/>
    </vehicle>
    <vehicle id="-flow-random-route-219ab24d-787a-480a-ac37-b190811d1f4e-1553990251163444248-1-1.0" type="actor-patient_car-2573927693849618546" depart="0.00" departLane="0" departPos="3.26" departSpeed="max" arrivalLane="0" arrivalPos="105.35">
        <route edges="gneE125 gneE129 -gneE135 -gneE124 gneE100 gneE91 edge-east-EN -gneE140 -gneE138 -gneE137"/>
    </vehicle>
    <vehicle id="-flow-random-route-23354c7e-375e-4553-92c1-a87d525c1aed-1553990251163444248-17-0.0" type="actor-impatient_car-5134858532229187494" depart="0.00" departLane="1" departPos="46.21" departSpeed="max" arrivalLane="0" arrivalPos="62.85">
        <route edges="gneE105 edge-west-WS gneE143"/>
    </vehicle>
    <vehicle id="-flow-random-route-23354c7e-375e-4553-92c1-a87d525c1aed-1553990251163444248-17-1.0" type="actor-patient_car-2573927693849618546" depart="0.00" departLane="1" departPos="46.21" departSpeed="max" arrivalLane="0" arrivalPos="62.85">
        <route edges="gneE105 edge-west-WS gneE143"/>
    </vehicle>
    <vehicle id="-flow-random-route-47250e36-ef52-4a71-b96f-a3224496004c-1553990251163444248-2-0.0" type="actor-impatient_car-5134858532229187494" depart="0.00" departLane="0" departPos="4.97" departSpeed="max" arrivalLane="0" arrivalPos="2.65">
        <route edges="gneE124.71 gneE114 gneE125 gneE129 gneE137 gneE138 -gneE110 -gneE124 gneE100 gneE91"/>
    </vehicle>
    <vehicle id="-flow-random-route-47250e36-ef52-4a71-b96f-a3224496004c-1553990251163444248-2-1.0" type="actor-patient_car-2573927693849618546" depart="0.00" departLane="0" departPos="4.97" departSpeed="max" arrivalLane="0" arrivalPos="2.65">
        <route edges="gneE124.71 gneE114 gneE125 gneE129 gneE137 gneE138 -gneE110 -gneE124 gneE100 gneE91"/>
    </vehicle>
    <vehicle id="-flow-random-route-49fdf1cc-e7ce-4c42-9949-10611d70a97a-1553990251163444248-16-0.0" type="actor-impatient_car-5134858532229187494" depart="0.00" departLane="0" departPos="3.98" departSpeed="max" arrivalLane="0" arrivalPos="49.84">
        <route edges="-gneE129 -gneE125 -gneE114 gneE135 gneE137 gneE138 gneE140 edge-north-NW edge-west-WS gneE143"/>
    </vehicle>
    <vehicle id="-flow-random-route-49fdf1cc-e7ce-4c42-9949-10611d70a97a-1553990251163444248-16-1.0" type="actor-patient_car-2573927693849618546" depart="0.00" departLane="0" departPos="3.98" departSpeed="max" arrivalLane="0" arrivalPos="49.84">
        <route edges="-gneE129 -gneE125 -gneE114 gneE135 gneE137 gneE138 gneE140 edge-north-NW edge-west-WS gneE143"/>
    </vehicle>
    <vehicle id="-flow-random-route-59506788-6a04-41e9-8910-bc433bf0b156-1553990251163444248-5-0.0" type="actor-impatient_car-5134858532229187494" depart="0.00" departLane="0" departPos="49.61" departSpeed="max" arrivalLane="0" arrivalPos="58.78">
        <route edges="gneE125 gneE129 -gneE135 -gneE124 gneE100 gneE91 edge-east-EN -gneE140 gneE104 gneE105"/>
    </vehicle>
    <vehicle id="-flow-random-route-59506788-6a04-41e9-8910-bc433bf0b156-1553990251163444248-5-1.0" type="actor-patient_car-2573927693849618546" depart="0.00" departLane="0" departPos="49.61" departSpeed="max" arrivalLane="0" arrivalPos="58.78">
        <route edges="gneE125 gneE129 -gneE135 -gneE124 gneE100 gneE91 edge-east-EN -gneE140 gneE104 gneE105"/>
    </vehicle>
    <vehicle id="-flow-random-route-59d0474d-be17-40cc-965b-165e75390b5f-1553990251163444248-9-0.0" type="actor-impatient_car-5134858532229187494" depart="0.00" departLane="0" departPos="46.36" departSpeed="max" arrivalLane="1" arrivalPos="16.04">
        <route edges="-gneE125 -gneE114 -gneE124 gneE100 gneE91 edge-east-EN -gneE140 gneE104 gneE105 edge-west-WS"/>
    </vehicle>
    <vehicle id="-flow-random-route-59d0474d-be17-40cc-965b-165e75390b5f-1553990251163444248-9-1.0" type="actor-patient_car-2573927693849618546" depart="0.00" departLane="0" departPos="46.36" departSpeed="max" arrivalLane="1" arrivalPos="16.04">
        <route edges="-gneE125 -gneE114 -gneE124 gneE100 gneE91 edge-east-EN -gneE140 gneE104 gneE105 edge-west-WS"/>
    </vehicle>
    <vehicle id="-flow-random-route-59fb022b-78f8-4eba-9573-783ebfdf24d2-1553990251163444248-19-0.0" type="actor-impatient_car-5134858532229187494" depart="0.00" departLane="0" departPos="67.48" departSpeed="max" arrivalLane="0" arrivalPos="44.13">
        <route edges="-gneE125 -gneE114 gneE110 gneE140 edge-north-NW edge-west-WS"/>
    </vehicle>
    <vehicle id="-flow-random-route-59fb022b-78f8-4eba-9573-783ebfdf24d2-1553990251163444248-19-1.0" type="actor-patient_car-2573927693849618546" depart="0.00" departLane="0" departPos="67.48" departSpeed="max" arrivalLane="0" arrivalPos="44.13">
        <route edges="-gneE125 -gneE114 gneE110 gneE140 edge-north-NW edge-west-WS"/>
    </vehicle>
    <vehicle id="-flow-random-route-72274d53-a944-49cc-80c1-ff2aecaa3d30-1553990251163444248-21-0.0" type="actor-impatient_car-5134858532229187494" depart="0.00" departLane="0" departPos="13.43" departSpeed="max" arrivalLane="1" arrivalPos="4.75">
        <route edges="gneE144 gneE100 gneE91 edge-east-EN -gneE140 -gneE110 gneE135 gneE137 gneE138 gneE104"/>
    </vehicle>
    <vehicle id="-flow-random-route-72274d53-a944-49cc-80c1-ff2aecaa3d30-1553990251163444248-21-1.0" type="actor-patient_car-2573927693849618546" depart="0.00" departLane="0" departPos="13.43" departSpeed="max" arrivalLane="1" arrivalPos="4.75">
        <route edges="gneE144 gneE100 gneE91 edge-east-EN -gneE140 -gneE110 gneE135 gneE137 gneE138 gneE104"/>
    </vehicle>
    <vehicle id="-flow-random-route-76cd0d6a-71dd-40d9-9a07-cd15f7f3bf53-1553990251163444248-8-0.0" type="actor-impatient_car-5134858532229187494" depart="0.00" departLane="0" departPos="115.00" departSpeed="max" arrivalLane="0" arrivalPos="15.23">
        <route edges="gneE110 gneE140 edge-north-NW edge-west-WS gneE143 gneE144 gneE124 gneE124.71 gneE114 gneE125"/>
    </vehicle>
    <vehicle id="-flow-random-route-76cd0d6a-71dd-40d9-9a07-cd15f7f3bf53-1553990251163444248-8-1.0" type="actor-patient_car-2573927693849618546" depart="0.00" departLane="0" departPos="115.00" departSpeed="max" arrivalLane="0" arrivalPos="15.23">
        <route edges="gneE110 gneE140 edge-north-NW edge-west-WS gneE143 gneE144 gneE124 gneE124.71 gneE114 gneE125"/>
    </vehicle>
    <vehicle id="-flow-random-route-85da4a68-4616-464e-b741-3013d97eb558-1553990251163444248-13-0.0" type="actor-impatient_car-5134858532229187494" depart="0.00" departLane="0" departPos="66.94" departSpeed="max" arrivalLane="0" arrivalPos="26.38">
        <route edges="-gneE125 -gneE114"/>
    </vehicle>
    <vehicle id="-flow-random-route-85da4a68-4616-464e-b741-3013d97eb558-1553990251163444248-13-1.0" type="actor-patient_car-2573927693849618546" depart="0.00" departLane="0" departPos="66.94" departSpeed="max" arrivalLane="0" arrivalPos="26.38">
        <route edges="-gneE125 -gneE114"/>
    </vehicle>
    <vehicle id="-flow-random-route-9224dcf8-5312-4f5c-bf56-2e5eab72acd4-1553990251163444248-20-0.0" type="actor-impatient_car-5134858532229187494" depart="0.00" departLane="0" departPos="7.98" departSpeed="max" arrivalLane="0" arrivalPos="10.89">
        <route edges="-gneE137 -gneE135 gneE114 gneE125 gneE129 -gneE135 gneE114 gneE125 gneE129 gneE137"/>
    </vehicle>
    <vehicle id="-flow-random-route-9224dcf8-5312-4f5c-bf56-2e5eab72acd4-1553990251163444248-20-1.0" type="actor-patient_car-2573927693849618546" depart="0.00" departLane="0" departPos="7.98" departSpeed="max" arrivalLane="0" arrivalPos="10.89">
        <route edges="-gneE137 -gneE135 gneE114 gneE125 gneE129 -gneE135 gneE114 gneE125 gneE129 gneE137"/>
    </vehicle>
    <vehicle id="-flow-random-route-92cd7d01-b47d-4d06-b419-bcdd1049e8f7-1553990251163444248-15-0.0" type="actor-impatient_car-5134858532229187494" depart="0.00" departLane="1" departPos="32.54" departSpeed="max" arrivalLane="0" arrivalPos="19.14">
        <route edges="edge-south-SE edge-east-EN edge-north-NW edge-west-WS gneE143 gneE144 gneE124 gneE124.71 gneE114 gneE125"/>
    </vehicle>
    <vehicle id="-flow-random-route-92cd7d01-b47d-4d06-b419-bcdd1049e8f7-1553990251163444248-15-1.0" type="actor-patient_car-2573927693849618546" depart="0.00" departLane="1" departPos="32.54" departSpeed="max" arrivalLane="0" arrivalPos="19.14">
        <route edges="edge-south-SE edge-east-EN edge-north-NW edge-west-WS gneE143 gneE144 gneE124 gneE124.71 gneE114 gneE125"/>
    </vehicle>
    <vehicle id="-flow-random-route-9f793081-dda8-463a-92ad-ef1daa34a617-1553990251163444248-10-0.0" type="actor-impatient_car-5134858532229187494" depart="0.00" departLane="0" departPos="108.10" departSpeed="max" arrivalLane="0" arrivalPos="41.93">
        <route edges="-gneE110 gneE114 gneE125 gneE129 -gneE135 -gneE124 gneE100 gneE91 edge-east-EN -gneE140"/>
    </vehicle>
    <vehicle id="-flow-random-route-9f793081-dda8-463a-92ad-ef1daa34a617-1553990251163444248-10-1.0" type="actor-patient_car-2573927693849618546" depart="0.00" departLane="0" departPos="108.10" departSpeed="max" arrivalLane="0" arrivalPos="41.93">
        <route edges="-gneE110 gneE114 gneE125 gneE129 -gneE135 -gneE124 gneE100 gneE91 edge-east-EN -gneE140"/>
    </vehicle>
    <vehicle id="-flow-random-route-9fde1824-0349-4013-bca5-4c96b8b406d8-1553990251163444248-0-0.0" type="actor-impatient_car-5134858532229187494" depart="0.00" departLane="0" departPos="11.63" departSpeed="max" arrivalLane="0" arrivalPos="9.20">
        <route edges="gneE164 gneE124.71 gneE114 gneE125 gneE129 gneE137 gneE138 gneE104 gneE105 edge-west-WS"/>
    </vehicle>
    <vehicle id="-flow-random-route-9fde1824-0349-4013-bca5-4c96b8b406d8-1553990251163444248-0-1.0" type="actor-patient_car-2573927693849618546" depart="0.00" departLane="0" departPos="11.63" departSpeed="max" arrivalLane="0" arrivalPos="9.20">
        <route edges="gneE164 gneE124.71 gneE114 gneE125 gneE129 gneE137 gneE138 gneE104 gneE105 edge-west-WS"/>
    </vehicle>
    <vehicle id="-flow-random-route-a19f3b77-24fc-43c7-97f7-c142ea29876b-1553990251163444248-14-0.0" type="actor-impatient_car-5134858532229187494" depart="0.00" departLane="1" departPos="38.86" departSpeed="max" arrivalLane="1" arrivalPos="7.84">
        <route edges="gneE105 edge-west-WS edge-south-SE edge-east-EN -gneE140 gneE104 gneE105 edge-west-WS gneE143 gneE144"/>
    </vehicle>
    <vehicle id="-flow-random-route-a19f3b77-24fc-43c7-97f7-c142ea29876b-1553990251163444248-14-1.0" type="actor-patient_car-2573927693849618546" depart="0.00" departLane="1" departPos="38.86" departSpeed="max" arrivalLane="1" arrivalPos="7.84">
        <route edges="gneE105 edge-west-WS edge-south-SE edge-east-EN -gneE140 gneE104 gneE105 edge-west-WS gneE143 gneE144"/>
    </vehicle>
    <vehicle id="-flow-random-route-b514b200-7b95-41c0-afa3-17a17c0ee5a5-1553990251163444248-6-0.0" type="actor-impatient_car-5134858532229187494" depart="0.00" departLane="0" departPos="43.59" departSpeed="max" arrivalLane="0" arrivalPos="88.44">
        <route edges="gneE110 gneE140 edge-north-NW edge-west-WS gneE143 gneE145 gneE146 gneE148 gneE125 gneE129"/>
    </vehicle>
    <vehicle id="-flow-random-route-b514b200-7b95-41c0-afa3-17a17c0ee5a5-1553990251163444248-6-1.0" type="actor-patient_car-2573927693849618546" depart="0.00" departLane="0" departPos="43.59" departSpeed="max" arrivalLane="0" arrivalPos="88.44">
        <route edges="gneE110 gneE140 edge-north-NW edge-west-WS gneE143 gneE145 gneE146 gneE148 gneE125 gneE129"/>
    </vehicle>
    <vehicle id="-flow-random-route-bd625c2c-b2e7-466e-8b0b-a91684c6b7ab-1553990251163444248-7-0.0" type="actor-impatient_car-5134858532229187494" depart="0.00" departLane="0" departPos="18.38" departSpeed="max" arrivalLane="0" arrivalPos="61.34">
        <route edges="-gneE110 gneE114 gneE125 gneE129"/>
    </vehicle>
    <vehicle id="-flow-random-route-bd625c2c-b2e7-466e-8b0b-a91684c6b7ab-1553990251163444248-7-1.0" type="actor-patient_car-2573927693849618546" depart="0.00" departLane="0" departPos="18.38" departSpeed="max" arrivalLane="0" arrivalPos="61.34">
        <route edges="-gneE110 gneE114 gneE125 gneE129"/>
    </vehicle>
    <vehicle id="-flow-random-route-c2760279-81a2-437a-9e5f-ea4350072a92-1553990251163444248-3-0.0" type="actor-impatient_car-5134858532229187494" depart="0.00" departLane="0" departPos="61.35" departSpeed="max" arrivalLane="0" arrivalPos="17.56">
        <route edges="-gneE110 -gneE124 gneE100 gneE91 edge-east-EN edge-north-NW edge-west-WS edge-south-SE edge-east-EN -gneE140"/>
    </vehicle>
    <vehicle id="-flow-random-route-c2760279-81a2-437a-9e5f-ea4350072a92-1553990251163444248-3-1.0" type="actor-patient_car-2573927693849618546" depart="0.00" departLane="0" departPos="61.35" departSpeed="max" arrivalLane="0" arrivalPos="17.56">
        <route edges="-gneE110 -gneE124 gneE100 gneE91 edge-east-EN edge-north-NW edge-west-WS edge-south-SE edge-east-EN -gneE140"/>
    </vehicle>
    <vehicle id="-flow-random-route-da675b4e-0337-4e3d-b575-a2c8578cb8d2-1553990251163444248-18-0.0" type="actor-impatient_car-5134858532229187494" depart="0.00" departLane="0" departPos="9.07" departSpeed="max" arrivalLane="0" arrivalPos="37.08">
        <route edges="gneE143 gneE145 gneE146 gneE161 gneE162 gneE124 gneE124.71 gneE135 -gneE129 -gneE125"/>
    </vehicle>
    <vehicle id="-flow-random-route-da675b4e-0337-4e3d-b575-a2c8578cb8d2-1553990251163444248-18-1.0" type="actor-patient_car-2573927693849618546" depart="0.00" departLane="0" departPos="9.07" departSpeed="max" arrivalLane="0" arrivalPos="37.08">
        <route edges="gneE143 gneE145 gneE146 gneE161 gneE162 gneE124 gneE124.71 gneE135 -gneE129 -gneE125"/>
    </vehicle>
    <vehicle id="-flow-random-route-f0789e76-6320-4c9c-a425-6f85f0cb7918-1553990251163444248-12-0.0" type="actor-impatient_car-5134858532229187494" depart="0.00" departLane="0" departPos="9.87" departSpeed="max" arrivalLane="0" arrivalPos="52.46">
        <route edges="-gneE114 gneE110 -gneE138 -gneE137 -gneE129 -gneE125"/>
    </vehicle>
    <vehicle id="-flow-random-route-f0789e76-6320-4c9c-a425-6f85f0cb7918-1553990251163444248-12-1.0" type="actor-patient_car-2573927693849618546" depart="0.00" departLane="0" departPos="9.87" departSpeed="max" arrivalLane="0" arrivalPos="52.46">
        <route edges="-gneE114 gneE110 -gneE138 -gneE137 -gneE129 -gneE125"/>
    </vehicle>
    <vehicle id="-flow-random-route-1a59da75-1983-40f7-9874-6af0a0c36038-1553990251163444248-4-0.1" type="actor-impatient_car-5134858532229187494" depart="240.00" departLane="0" departPos="17.73" departSpeed="max" arrivalLane="0" arrivalPos="7.19">
        <route edges="-gneE135 -gneE124 gneE100 gneE91 edge-east-EN -gneE140 gneE104 gneE105 edge-west-WS edge-south-SE"/>
    </vehicle>
    <vehicle id="-flow-random-route-1a59da75-1983-40f7-9874-6af0a0c36038-1553990251163444248-4-1.1" type="actor-patient_car-2573927693849618546" depart="240.00" departLane="0" departPos="17.73" departSpeed="max" arrivalLane="0" arrivalPos="7.19">
        <route edges="-gneE135 -gneE124 gneE100 gneE91 edge-east-EN -gneE140 gneE104 gneE105 edge-west-WS edge-south-SE"/>
    </vehicle>
    <vehicle id="-flow-random-route-1ce512a4-e257-4195-8000-07a674905f4b-1553990251163444248-11-0.1" type="actor-impatient_car-5134858532229187494" depart="240.00" departLane="0" departPos="86.81" departSpeed="max" arrivalLane="1" arrivalPos="18.94">
        <route edges="gneE129 gneE137 gneE138 gneE104 gneE105 edge-west-WS gneE143 gneE145 gneE146 gneE161"/>
    </vehicle>
    <vehicle id="-flow-random-route-1ce512a4-e257-4195-8000-07a674905f4b-1553990251163444248-11-1.1" type="actor-patient_car-2573927693849618546" depart="240.00" departLane="0" departPos="86.81" departSpeed="max" arrivalLane="1" arrivalPos="18.94">
        <route edges="gneE129 gneE137 gneE138 gneE104 gneE105 edge-west-WS gneE143 gneE145 gneE146 gneE161"/>
    </vehicle>
    <vehicle id="-flow-random-route-219ab24d-787a-480a-ac37-b190811d1f4e-1553990251163444248-1-0.1" type="actor-impatient_car-5134858532229187494" depart="240.00" departLane="0" departPos="3.26" departSpeed="max" arrivalLane="0" arrivalPos="105.35">
        <route edges="gneE125 gneE129 -gneE135 -gneE124 gneE100 gneE91 edge-east-EN -gneE140 -gneE138 -gneE137"/>
    </vehicle>
    <vehicle id="-flow-random-route-219ab24d-787a-480a-ac37-b190811d1f4e-1553990251163444248-1-1.1" type="actor-patient_car-2573927693849618546" depart="240.00" departLane="0" departPos="3.26" departSpeed="max" arrivalLane="0" arrivalPos="105.35">
        <route edges="gneE125 gneE129 -gneE135 -gneE124 gneE100 gneE91 edge-east-EN -gneE140 -gneE138 -gneE137"/>
    </vehicle>
    <vehicle id="-flow-random-route-23354c7e-375e-4553-92c1-a87d525c1aed-1553990251163444248-17-0.1" type="actor-impatient_car-5134858532229187494" depart="240.00" departLane="1" departPos="46.21" departSpeed="max" arrivalLane="0" arrivalPos="62.85">
        <route edges="gneE105 edge-west-WS gneE143"/>
    </vehicle>
    <vehicle id="-flow-random-route-23354c7e-375e-4553-92c1-a87d525c1aed-1553990251163444248-17-1.1" type="actor-patient_car-2573927693849618546" depart="240.00" departLane="1" departPos="46.21" departSpeed="max" arrivalLane="0" arrivalPos="62.85">
        <route edges="gneE105 edge-west-WS gneE143"/>
    </vehicle>
    <vehicle id="-flow-random-route-47250e36-ef52-4a71-b96f-a3224496004c-1553990251163444248-2-0.1" type="actor-impatient_car-5134858532229187494" depart="240.00" departLane="0" departPos="4.97" departSpeed="max" arrivalLane="0" arrivalPos="2.65">
        <route edges="gneE124.71 gneE114 gneE125 gneE129 gneE137 gneE138 -gneE110 -gneE124 gneE100 gneE91"/>
    </vehicle>
    <vehicle id="-flow-random-route-47250e36-ef52-4a71-b96f-a3224496004c-1553990251163444248-2-1.1" type="actor-patient_car-2573927693849618546" depart="240.00" departLane="0" departPos="4.97" departSpeed="max" arrivalLane="0" arrivalPos="2.65">
        <route edges="gneE124.71 gneE114 gneE125 gneE129 gneE137 gneE138 -gneE110 -gneE124 gneE100 gneE91"/>
    </vehicle>
    <vehicle id="-flow-random-route-49fdf1cc-e7ce-4c42-9949-10611d70a97a-1553990251163444248-16-0.1" type="actor-impatient_car-5134858532229187494" depart="240.00" departLane="0" departPos="3.98" departSpeed="max" arrivalLane="0" arrivalPos="49.84">
        <route edges="-gneE129 -gneE125 -gneE114 gneE135 gneE137 gneE138 gneE140 edge-north-NW edge-west-WS gneE143"/>
    </vehicle>
    <vehicle id="-flow-random-route-49fdf1cc-e7ce-4c42-9949-10611d70a97a-1553990251163444248-16-1.1" type="actor-patient_car-2573927693849618546" depart="240.00" departLane="0" departPos="3.98" departSpeed="max" arrivalLane="0" arrivalPos="49.84">
        <route edges="-gneE129 -gneE125 -gneE114 gneE135 gneE137 gneE138 gneE140 edge-north-NW edge-west-WS gneE143"/>
    </vehicle>
    <vehicle id="-flow-random-route-59506788-6a04-41e9-8910-bc433bf0b156-1553990251163444248-5-0.1" type="actor-impatient_car-5134858532229187494" depart="240.00" departLane="0" departPos="49.61" departSpeed="max" arrivalLane="0" arrivalPos="58.78">
        <route edges="gneE125 gneE129 -gneE135 -gneE124 gneE100 gneE91 edge-east-EN -gneE140 gneE104 gneE105"/>
    </vehicle>
    <vehicle id="-flow-random-route-59506788-6a04-41e9-8910-bc433bf0b156-1553990251163444248-5-1.1" type="actor-patient_car-2573927693849618546" depart="240.00" departLane="0" departPos="49.61" departSpeed="max" arrivalLane="0" arrivalPos="58.78">
        <route edges="gneE125 gneE129 -gneE135 -gneE124 gneE100 gneE91 edge-east-EN -gneE140 gneE104 gneE105"/>
    </vehicle>
    <vehicle id="-flow-random-route-59d0474d-be17-40cc-965b-165e75390b5f-1553990251163444248-9-0.1" type="actor-impatient_car-5134858532229187494" depart="240.00" departLane="0" departPos="46.36" departSpeed="max" arrivalLane="1" arrivalPos="16.04">
        <route edges="-gneE125 -gneE114 -gneE124 gneE100 gneE91 edge-east-EN -gneE140 gneE104 gneE105 edge-west-WS"/>
    </vehicle>
    <vehicle id="-flow-random-route-59d0474d-be17-40cc-965b-165e75390b5f-1553990251163444248-9-1.1" type="actor-patient_car-2573927693849618546" depart="240.00" departLane="0" departPos="46.36" departSpeed="max" arrivalLane="1" arrivalPos="16.04">
        <route edges="-gneE125 -gneE114 -gneE124 gneE100 gneE91 edge-east-EN -gneE140 gneE104 gneE105 edge-west-WS"/>
    </vehicle>
    <vehicle id="-flow-random-route-59fb022b-78f8-4eba-9573-783ebfdf24d2-1553990251163444248-19-0.1" type="actor-impatient_car-5134858532229187494" depart="240.00" departLane="0" departPos="67.48" departSpeed="max" arrivalLane="0" arrivalPos="44.13">
        <route edges="-gneE125 -gneE114 gneE110 gneE140 edge-north-NW edge-west-WS"/>
    </vehicle>
    <vehicle id="-flow-random-route-59fb022b-78f8-4eba-9573-783ebfdf24d2-1553990251163444248-19-1.1" type="actor-patient_car-2573927693849618546" depart="240.00" departLane="0" departPos="67.48" departSpeed="max" arrivalLane="0" arrivalPos="44.13">
        <route edges="-gneE125 -gneE114 gneE110 gneE140 edge-north-NW edge-west-WS"/>
    </vehicle>
    <vehicle id="-flow-random-route-72274d53-a944-49cc-80c1-ff2aecaa3d30-1553990251163444248-21-0.1" type="actor-impatient_car-5134858532229187494" depart="240.00" departLane="0" departPos="13.43" departSpeed="max" arrivalLane="1" arrivalPos="4.75">
        <route edges="gneE144 gneE100 gneE91 edge-east-EN -gneE140 -gneE110 gneE135 gneE137 gneE138 gneE104"/>
    </vehicle>
    <vehicle id="-flow-random-route-72274d53-a944-49cc-80c1-ff2aecaa3d30-1553990251163444248-21-1.1" type="actor-patient_car-2573927693849618546" depart="240.00" departLane="0" departPos="13.43" departSpeed="max" arrivalLane="1" arrivalPos="4.75">
        <route edges="gneE144 gneE100 gneE91 edge-east-EN -gneE140 -gneE110 gneE135 gneE137 gneE138 gneE104"/>
    </vehicle>
    <vehicle id="-flow-random-route-76cd0d6a-71dd-40d9-9a07-cd15f7f3bf53-1553990251163444248-8-0.1" type="actor-impatient_car-5134858532229187494" depart="240.00" departLane="0" departPos="115.00" departSpeed="max" arrivalLane="0" arrivalPos="15.23">
        <route edges="gneE110 gneE140 edge-north-NW edge-west-WS gneE143 gneE144 gneE124 gneE124.71 gneE114 gneE125"/>
    </vehicle>
    <vehicle id="-flow-random-route-76cd0d6a-71dd-40d9-9a07-cd15f7f3bf53-1553990251163444248-8-1.1" type="actor-patient_car-2573927693849618546" depart="240.00" departLane="0" departPos="115.00" departSpeed="max" arrivalLane="0" arrivalPos="15.23">
        <route edges="gneE110 gneE140 edge-north-NW edge-west-WS gneE143 gneE144 gneE124 gneE124.71 gneE114 gneE125"/>
    </vehicle>
    <vehicle id="-flow-random-route-85da4a68-4616-464e-b741-3013d97eb558-1553990251163444248-13-0.1" type="actor-impatient_car-5134858532229187494" depart="240.00" departLane="0" departPos="66.94" departSpeed="max" arrivalLane="0" arrivalPos="26.38">
        <route edges="-gneE125 -gneE114"/>
    </vehicle>
    <vehicle id="-flow-random-route-85da4a68-4616-464e-b741-3013d97eb558-1553990251163444248-13-1.1" type="actor-patient_car-2573927693849618546" depart="240.00" departLane="0" departPos="66.94" departSpeed="max" arrivalLane="0" arrivalPos="26.38">
        <route edges="-gneE125 -gneE114"/>
    </vehicle>
    <vehicle id="-flow-random-route-9224dcf8-5312-4f5c-bf56-2e5eab72acd4-1553990251163444248-20-0.1" type="actor-impatient_car-5134858532229187494" depart="240.00" departLane="0" departPos="7.98" departSpeed="max" arrivalLane="0" arrivalPos="10.89">
        <route edges="-gneE137 -gneE135 gneE114 gneE125 gneE129 -gneE135 gneE114 gneE125 gneE129 gneE137"/>
    </vehicle>
    <vehicle id="-flow-random-route-9224dcf8-5312-4f5c-bf56-2e5eab72acd4-1553990251163444248-20-1.1" type="actor-patient_car-2573927693849618546" depart="240.00" departLane="0" departPos="7.98" departSpeed="max" arrivalLane="0" arrivalPos="10.89">
        <route edges="-gneE137 -gneE135 gneE114 gneE125 gneE129 -gneE135 gneE114 gneE125 gneE129 gneE137"/>
    </vehicle>
    <vehicle id="-flow-random-route-92cd7d01-b47d-4d06-b419-bcdd1049e8f7-1553990251163444248-15-0.1" type="actor-impatient_car-5134858532229187494" depart="240.00" departLane="1" departPos="32.54" departSpeed="max" arrivalLane="0" arrivalPos="19.14">
        <route edges="edge-south-SE edge-east-EN edge-north-NW edge-west-WS gneE143 gneE144 gneE124 gneE124.71 gneE114 gneE125"/>
    </vehicle>
    <vehicle id="-flow-random-route-92cd7d01-b47d-4d06-b419-bcdd1049e8f7-1553990251163444248-15-1.1" type="actor-patient_car-2573927693849618546" depart="240.00" departLane="1" departPos="32.54" departSpeed="max" arrivalLane="0" arrivalPos="19.14">
        <route edges="edge-south-SE edge-east-EN edge-north-NW edge-west-WS gneE143 gneE144 gneE124 gneE124.71 gneE114 gneE125"/>
    </vehicle>
    <vehicle id="-flow-random-route-9f793081-dda8-463a-92ad-ef1daa34a617-1553990251163444248-10-0.1" type="actor-impatient_car-5134858532229187494" depart="240.00" departLane="0" departPos="108.10" departSpeed="max" arrivalLane="0" arrivalPos="41.93">
        <route edges="-gneE110 gneE114 gneE125 gneE129 -gneE135 -gneE124 gneE100 gneE91 edge-east-EN -gneE140"/>
    </vehicle>
    <vehicle id="-flow-random-route-9f793081-dda8-463a-92ad-ef1daa34a617-1553990251163444248-10-1.1" type="actor-patient_car-2573927693849618546" depart="240.00" departLane="0" departPos="108.10" departSpeed="max" arrivalLane="0" arrivalPos="41.93">
        <route edges="-gneE110 gneE114 gneE125 gneE129 -gneE135 -gneE124 gneE100 gneE91 edge-east-EN -gneE140"/>
    </vehicle>
    <vehicle id="-flow-random-route-9fde1824-0349-4013-bca5-4c96b8b406d8-1553990251163444248-0-0.1" type="actor-impatient_car-5134858532229187494" depart="240.00" departLane="0" departPos="11.63" departSpeed="max" arrivalLane="0" arrivalPos="9.20">
        <route edges="gneE164 gneE124.71 gneE114 gneE125 gneE129 gneE137 gneE138 gneE104 gneE105 edge-west-WS"/>
    </vehicle>
    <vehicle id="-flow-random-route-9fde1824-0349-4013-bca5-4c96b8b406d8-1553990251163444248-0-1.1" type="actor-patient_car-2573927693849618546" depart="240.00" departLane="0" departPos="11.63" departSpeed="max" arrivalLane="0" arrivalPos="9.20">
        <route edges="gneE164 gneE124.71 gneE114 gneE125 gneE129 gneE137 gneE138 gneE104 gneE105 edge-west-WS"/>
    </vehicle>