<?xml version="1.0" encoding="UTF-8"?>

<!-- generated on 2020年09月18日 星期五 15时25分43秒 by Eclipse SUMO netedit Version 1.6.0
<configuration xmlns:xsi="http://www.w3.org/2001/XMLSchema-instance" xsi:noNamespaceSchemaLocation="http://sumo.dlr.de/xsd/netconvertConfiguration.xsd">

    <output>
        <output-file value="/home/simsimi/桌面/HUAWEI-DAI-TASK1/HUAWEI-DAI2020/task1/dataset_public/demo/demo6/map.net.xml"/>
    </output>

    <processing>
        <offset.disable-normalization value="true"/>
    </processing>

    <junctions>
        <no-turnarounds value="true"/>
    </junctions>

    <report>
        <aggregate-warnings value="5"/>
    </report>

</configuration>
-->

<net version="1.6" junctionCornerDetail="5" limitTurnSpeed="5.50" xmlns:xsi="http://www.w3.org/2001/XMLSchema-instance" xsi:noNamespaceSchemaLocation="http://sumo.dlr.de/xsd/net_file.xsd">

    <location netOffset="0.00,0.00" convBoundary="-50.70,-115.85,171.80,64.10" origBoundary="10000000000.00,10000000000.00,-10000000000.00,-10000000000.00" projParameter="!"/>

    <edge id=":gneJ11_0" function="internal">
        <lane id=":gneJ11_0_0" index="0" speed="11.16" length="20.00" shape="-40.76,50.65 -45.81,47.88 -49.40,44.47 -51.54,40.43 -52.22,35.76"/>
    </edge>
    <edge id=":gneJ11_1" function="internal">
        <lane id=":gneJ11_1_0" index="0" speed="7.41" length="10.13" shape="-40.76,50.65 -46.01,47.67 -47.77,44.68 -47.46,44.14"/>
    </edge>
    <edge id=":gneJ11_6" function="internal">
        <lane id=":gneJ11_6_0" index="0" speed="7.41" length="8.89" shape="-47.46,44.14 -46.03,41.68 -40.79,38.67"/>
    </edge>
    <edge id=":gneJ11_2" function="internal">
        <lane id=":gneJ11_2_0" index="0" speed="5.48" length="9.67" shape="-39.52,41.61 -42.19,43.14 -43.07,44.67 -42.18,46.19 -39.51,47.70"/>
    </edge>
    <edge id=":gneJ11_3" function="internal">
        <lane id=":gneJ11_3_0" index="0" speed="7.86" length="17.99" shape="-39.52,41.61 -45.11,43.31 -49.09,42.91 -51.46,40.39 -52.22,35.76"/>
    </edge>
    <edge id=":gneJ11_4" function="internal">
        <lane id=":gneJ11_4_0" index="0" speed="6.30" length="11.08" shape="-49.02,35.79 -48.53,38.39 -46.99,39.74 -44.41,39.83 -40.79,38.67"/>
    </edge>
    <edge id=":gneJ11_5" function="internal">
        <lane id=":gneJ11_5_0" index="0" speed="10.09" length="16.21" shape="-49.02,35.79 -48.45,39.47 -46.68,42.69 -43.69,45.43 -39.51,47.70"/>
    </edge>
    <edge id=":gneJ12_0" function="internal">
        <lane id=":gneJ12_0_0" index="0" speed="12.52" length="1.53" shape="-12.99,62.19 -13.44,62.15 -13.75,62.09 -14.04,62.00 -14.46,61.82"/>
    </edge>
    <edge id=":gneJ12_1" function="internal">
        <lane id=":gneJ12_1_0" index="0" speed="13.89" length="0.51" shape="-13.21,58.88 -13.07,58.94 -12.97,58.97 -12.87,58.99 -12.72,59.00"/>
    </edge>
    <edge id=":gneJ14_0" function="internal">
        <lane id=":gneJ14_0_0" index="0" speed="7.11" length="3.02" shape="29.96,64.95 29.19,65.38 28.61,65.60 27.99,65.66 27.10,65.60"/>
    </edge>
    <edge id=":gneJ14_1" function="internal">
        <lane id=":gneJ14_1_0" index="0" speed="4.45" length="1.01" shape="27.37,62.42 27.67,62.43 27.87,62.42 28.07,62.34 28.33,62.20"/>
    </edge>
    <edge id=":gneJ15_0" function="internal">
        <lane id=":gneJ15_0_0" index="0" speed="8.39" length="2.12" shape="60.78,46.11 60.43,46.63 60.14,46.95 59.80,47.22 59.26,47.54"/>
    </edge>
    <edge id=":gneJ15_1" function="internal">
        <lane id=":gneJ15_1_0" index="0" speed="13.89" length="0.71" shape="57.63,44.79 57.81,44.68 57.92,44.60 58.02,44.49 58.14,44.32"/>
    </edge>
    <edge id=":gneJ16_0" function="internal">
        <lane id=":gneJ16_0_0" index="0" speed="7.09" length="3.05" shape="77.61,19.71 77.62,20.60 77.53,21.22 77.27,21.80 76.79,22.55"/>
    </edge>
    <edge id=":gneJ16_1" function="internal">
        <lane id=":gneJ16_1_0" index="0" speed="4.44" length="1.02" shape="74.14,20.75 74.30,20.50 74.39,20.31 74.42,20.10 74.42,19.80"/>
    </edge>
    <edge id=":gneJ17_0" function="internal">
        <lane id=":gneJ17_0_0" index="0" speed="5.60" length="9.32" shape="73.44,-12.48 72.99,-15.28 71.86,-16.70 70.04,-16.74 67.54,-15.40"/>
    </edge>
    <edge id=":gneJ17_1" function="internal">
        <lane id=":gneJ17_1_0" index="0" speed="13.89" length="15.68" shape="73.44,-12.48 73.44,-16.38 73.81,-20.40 74.78,-24.23 76.55,-27.57"/>
    </edge>
    <edge id=":gneJ17_2" function="internal">
        <lane id=":gneJ17_2_0" index="0" speed="13.58" length="13.59" shape="79.11,-25.64 77.43,-22.62 76.69,-19.48 76.54,-16.16 76.64,-12.57"/>
    </edge>
    <edge id=":gneJ17_3" function="internal">
        <lane id=":gneJ17_3_0" index="0" speed="13.89" length="15.50" shape="79.11,-25.64 76.60,-22.77 73.72,-20.12 70.64,-17.67 67.54,-15.40"/>
    </edge>
    <edge id=":gneJ17_4" function="internal">
        <lane id=":gneJ17_4_0" index="0" speed="13.89" length="14.54" shape="65.68,-18.01 68.67,-20.17 71.51,-22.38 74.16,-24.80 76.55,-27.57"/>
    </edge>
    <edge id=":gneJ17_5" function="internal">
        <lane id=":gneJ17_5_0" index="0" speed="7.38" length="6.54" shape="65.68,-18.01 70.33,-20.50 71.59,-20.47"/>
    </edge>
    <edge id=":gneJ17_6" function="internal">
        <lane id=":gneJ17_6_0" index="0" speed="7.38" length="10.76" shape="71.59,-20.47 73.70,-20.42 75.81,-17.78 76.64,-12.57"/>
    </edge>
    <edge id=":gneJ18_0" function="internal">
        <lane id=":gneJ18_0_0" index="0" speed="3.96" length="1.97" shape="94.89,-44.78 94.38,-44.87 93.92,-44.80 93.51,-44.58 93.14,-44.21"/>
    </edge>
    <edge id=":gneJ18_1" function="internal">
        <lane id=":gneJ18_1_0" index="0" speed="6.18" length="5.91" shape="90.59,-46.14 91.68,-47.26 92.92,-47.91 94.30,-48.10 95.83,-47.84"/>
    </edge>
    <edge id=":gneJ19_0" function="internal">
        <lane id=":gneJ19_0_0" index="0" speed="13.89" length="0.52" shape="117.54,-37.71 117.41,-37.80 117.32,-37.85 117.22,-37.89 117.07,-37.94"/>
    </edge>
    <edge id=":gneJ19_1" function="internal">
        <lane id=":gneJ19_1_0" index="0" speed="11.84" length="1.57" shape="118.02,-41.00 118.46,-40.86 118.75,-40.74 119.03,-40.57 119.41,-40.31"/>
    </edge>
    <edge id=":gneJ20_0" function="internal">
        <lane id=":gneJ20_0_0" index="0" speed="6.15" length="6.27" shape="142.96,-23.69 141.53,-22.84 140.09,-22.54 138.64,-22.78 137.18,-23.56"/>
    </edge>
    <edge id=":gneJ20_1" function="internal">
        <lane id=":gneJ20_1_0" index="0" speed="3.94" length="2.09" shape="139.05,-26.16 139.53,-25.90 140.02,-25.82 140.50,-25.92 140.97,-26.20"/>
    </edge>
    <edge id=":gneJ21_0" function="internal">
        <lane id=":gneJ21_0_0" index="0" speed="6.92" length="3.33" shape="167.83,-44.75 167.59,-43.80 167.32,-43.17 166.87,-42.65 166.12,-42.02"/>
    </edge>
    <edge id=":gneJ21_1" function="internal">
        <lane id=":gneJ21_1_0" index="0" speed="4.34" length="1.11" shape="164.13,-44.53 164.38,-44.74 164.53,-44.91 164.62,-45.12 164.70,-45.44"/>
    </edge>
    <edge id=":gneJ22_0" function="internal">
        <lane id=":gneJ22_0_0" index="0" speed="7.18" length="2.94" shape="172.91,-71.64 173.22,-70.84 173.35,-70.24 173.32,-69.64 173.15,-68.79"/>
    </edge>
    <edge id=":gneJ22_1" function="internal">
        <lane id=":gneJ22_1_0" index="0" speed="13.89" length="0.98" shape="170.03,-69.49 170.08,-69.77 170.09,-69.97 170.05,-70.17 169.95,-70.43"/>
    </edge>
    <edge id=":gneJ23_0" function="internal">
        <lane id=":gneJ23_0_0" index="0" speed="4.19" length="1.27" shape="158.51,-98.51 158.36,-98.80 158.16,-99.04 157.92,-99.24 157.64,-99.39"/>
    </edge>
    <edge id=":gneJ23_1" function="internal">
        <lane id=":gneJ23_1_0" index="0" speed="6.62" length="3.80" shape="158.87,-102.34 159.72,-101.89 160.44,-101.30 161.02,-100.58 161.47,-99.72"/>
    </edge>
    <edge id=":gneJ24_0" function="internal">
        <lane id=":gneJ24_0_0" index="0" speed="13.89" length="0.65" shape="122.14,-114.12 121.96,-114.19 121.84,-114.23 121.71,-114.24 121.51,-114.24"/>
    </edge>
    <edge id=":gneJ24_1" function="internal">
        <lane id=":gneJ24_1_0" index="0" speed="8.98" length="1.94" shape="121.49,-117.44 122.06,-117.44 122.46,-117.40 122.84,-117.29 123.37,-117.07"/>
    </edge>
    <edge id=":gneJ25_0" function="internal">
        <lane id=":gneJ25_0_0" index="0" speed="13.89" length="0.50" shape="76.75,-113.88 76.60,-113.88 76.50,-113.87 76.40,-113.84 76.26,-113.80"/>
    </edge>
    <edge id=":gneJ25_1" function="internal">
        <lane id=":gneJ25_1_0" index="0" speed="12.83" length="1.51" shape="75.25,-116.83 75.67,-116.97 75.97,-117.04 76.28,-117.07 76.73,-117.08"/>
    </edge>
    <edge id=":gneJ26_0" function="internal">
        <lane id=":gneJ26_0_0" index="0" speed="13.89" length="0.94" shape="32.28,-99.14 32.02,-99.04 31.85,-98.96 31.71,-98.83 31.54,-98.61"/>
    </edge>
    <edge id=":gneJ26_1" function="internal">
        <lane id=":gneJ26_1_0" index="0" speed="7.29" length="2.81" shape="29.03,-100.60 29.56,-101.24 29.98,-101.63 30.49,-101.90 31.27,-102.17"/>
    </edge>
    <edge id=":gneJ27_0" function="internal">
        <lane id=":gneJ27_0_0" index="0" speed="13.89" length="0.32" shape="6.57,-67.13 6.51,-67.06 6.47,-67.00 6.44,-66.95 6.40,-66.86"/>
    </edge>
    <edge id=":gneJ27_1" function="internal">
        <lane id=":gneJ27_1_0" index="0" speed="13.89" length="0.97" shape="3.54,-68.31 3.67,-68.57 3.77,-68.74 3.88,-68.90 4.06,-69.12"/>
    </edge>
    <edge id=":gneJ28_0" function="internal">
        <lane id=":gneJ28_0_0" index="0" speed="13.89" length="1.20" shape="-6.16,-42.12 -6.32,-41.81 -6.45,-41.60 -6.59,-41.40 -6.83,-41.13"/>
    </edge>
    <edge id=":gneJ28_1" function="internal">
        <lane id=":gneJ28_1_0" index="0" speed="13.89" length="0.40" shape="-9.23,-43.24 -9.16,-43.33 -9.11,-43.39 -9.07,-43.46 -9.01,-43.57"/>
    </edge>
    <edge id=":gneJ29_0" function="internal">
        <lane id=":gneJ29_0_0" index="0" speed="13.89" length="0.10" shape="-23.74,-21.83 -23.80,-21.76"/>
    </edge>
    <edge id=":gneJ29_1" function="internal">
        <lane id=":gneJ29_1_0" index="0" speed="13.89" length="0.10" shape="-26.07,-24.02 -26.14,-23.94"/>
    </edge>
    <edge id=":gneJ30_0" function="internal">
        <lane id=":gneJ30_0_0" index="0" speed="4.24" length="1.26" shape="-48.27,2.89 -48.52,3.16 -48.66,3.38 -48.72,3.63 -48.74,4.00"/>
    </edge>
    <edge id=":gneJ30_1" function="internal">
        <lane id=":gneJ30_1_0" index="0" speed="6.71" length="3.78" shape="-51.94,3.97 -51.89,2.87 -51.71,2.11 -51.30,1.44 -50.54,0.63"/>
    </edge>
    <edge id=":gneJ31_0" function="internal">
        <lane id=":gneJ31_0_0" index="0" speed="13.89" length="1.03" shape="29.48,11.79 29.23,11.97 29.05,12.08 28.87,12.17 28.59,12.29"/>
    </edge>
    <edge id=":gneJ31_1" function="internal">
        <lane id=":gneJ31_1_0" index="0" speed="13.89" length="0.34" shape="27.32,9.35 27.42,9.31 27.48,9.28 27.54,9.24 27.62,9.19"/>
    </edge>

    <edge id="-gneE10" from="gneJ12" to="gneJ11" priority="-1">
        <lane id="-gneE10_0" index="0" speed="13.89" length="28.57" shape="-14.46,61.82 -40.76,50.65"/>
    </edge>
    <edge id="-gneE11" from="gneJ14" to="gneJ12" priority="-1">
        <lane id="-gneE11_0" index="0" speed="13.89" length="40.24" shape="27.10,65.60 -12.99,62.19"/>
    </edge>
    <edge id="-gneE12" from="gneJ15" to="gneJ14" priority="-1">
        <lane id="-gneE12_0" index="0" speed="13.89" length="34.08" shape="59.26,47.54 29.96,64.95"/>
    </edge>
    <edge id="-gneE13" from="gneJ16" to="gneJ15" priority="-1">
        <lane id="-gneE13_0" index="0" speed="13.89" length="28.49" shape="76.79,22.55 60.78,46.11"/>
    </edge>
    <edge id="-gneE14" from="gneJ17" to="gneJ16" priority="-1">
        <lane id="-gneE14_0" index="0" speed="13.89" length="32.29" shape="76.64,-12.57 77.61,19.71"/>
    </edge>
    <edge id="-gneE15" from="gneJ18" to="gneJ17" priority="-1">
        <lane id="-gneE15_0" index="0" speed="13.89" length="23.28" shape="93.14,-44.21 79.11,-25.64"/>
    </edge>
    <edge id="-gneE16" from="gneJ19" to="gneJ18" priority="-1">
        <lane id="-gneE16_0" index="0" speed="13.89" length="23.21" shape="117.07,-37.94 94.89,-44.78"/>
    </edge>
    <edge id="-gneE17" from="gneJ20" to="gneJ19" priority="-1">
        <lane id="-gneE17_0" index="0" speed="13.89" length="24.20" shape="137.18,-23.56 117.54,-37.71"/>
    </edge>
    <edge id="-gneE18" from="gneJ21" to="gneJ20" priority="-1">
        <lane id="-gneE18_0" index="0" speed="13.89" length="29.53" shape="166.12,-42.02 142.96,-23.69"/>
    </edge>
    <edge id="-gneE19" from="gneJ22" to="gneJ21" priority="-1">
        <lane id="-gneE19_0" index="0" speed="13.89" length="24.63" shape="173.15,-68.79 167.83,-44.75"/>
    </edge>
    <edge id="-gneE20" from="gneJ23" to="gneJ22" priority="-1">
        <lane id="-gneE20_0" index="0" speed="13.89" length="30.32" shape="161.47,-99.72 172.91,-71.64"/>
    </edge>
    <edge id="-gneE21" from="gneJ24" to="gneJ23" priority="-1">
        <lane id="-gneE21_0" index="0" speed="13.89" length="38.43" shape="123.37,-117.07 158.87,-102.34"/>
    </edge>
    <edge id="-gneE22" from="gneJ25" to="gneJ24" priority="-1">
        <lane id="-gneE22_0" index="0" speed="13.89" length="44.76" shape="76.73,-117.08 121.49,-117.44"/>
    </edge>
    <edge id="-gneE23" from="gneJ26" to="gneJ25" priority="-1">
        <lane id="-gneE23_0" index="0" speed="13.89" length="46.35" shape="31.27,-102.17 75.25,-116.83"/>
    </edge>
    <edge id="-gneE24" from="gneJ27" to="gneJ26" priority="-1">
        <lane id="-gneE24_0" index="0" speed="13.89" length="40.18" shape="4.06,-69.12 29.03,-100.60"/>
    </edge>
    <edge id="-gneE25" from="gneJ28" to="gneJ27" priority="-1">
        <lane id="-gneE25_0" index="0" speed="13.89" length="27.74" shape="-9.01,-43.57 3.54,-68.31"/>
    </edge>
    <edge id="-gneE26" from="gneJ29" to="gneJ28" priority="-1">
        <lane id="-gneE26_0" index="0" speed="13.89" length="25.66" shape="-26.14,-23.94 -9.23,-43.24"/>
    </edge>
    <edge id="-gneE27" from="gneJ30" to="gneJ29" priority="-1">
        <lane id="-gneE27_0" index="0" speed="13.89" length="34.73" shape="-50.54,0.63 -26.07,-24.02"/>
    </edge>
    <edge id="-gneE28" from="gneJ11" to="gneJ30" priority="-1">
        <lane id="-gneE28_0" index="0" speed="13.89" length="31.79" shape="-52.22,35.76 -51.94,3.97"/>
    </edge>
    <edge id="-gneE29" from="gneJ31" to="gneJ11" priority="-1">
        <lane id="-gneE29_0" index="0" speed="13.89" length="74.15" shape="28.59,12.29 -39.52,41.61"/>
    </edge>
    <edge id="-gneE30" from="gneJ17" to="gneJ31" priority="-1">
        <lane id="-gneE30_0" index="0" speed="13.89" length="46.77" shape="67.54,-15.40 29.48,11.79"/>
    </edge>
    <edge id="gneE10" from="gneJ11" to="gneJ12" priority="-1">
        <lane id="gneE10_0" index="0" speed="13.89" length="28.57" shape="-39.51,47.70 -13.21,58.88"/>
    </edge>
    <edge id="gneE11" from="gneJ12" to="gneJ14" priority="-1">
        <lane id="gneE11_0" index="0" speed="13.89" length="40.24" shape="-12.72,59.00 27.37,62.42"/>
    </edge>
    <edge id="gneE12" from="gneJ14" to="gneJ15" priority="-1">
        <lane id="gneE12_0" index="0" speed="13.89" length="34.08" shape="28.33,62.20 57.63,44.79"/>
    </edge>
    <edge id="gneE13" from="gneJ15" to="gneJ16" priority="-1">
        <lane id="gneE13_0" index="0" speed="13.89" length="28.49" shape="58.14,44.32 74.14,20.75"/>
    </edge>
    <edge id="gneE14" from="gneJ16" to="gneJ17" priority="-1">
        <lane id="gneE14_0" index="0" speed="13.89" length="32.29" shape="74.42,19.80 73.44,-12.48"/>
    </edge>
    <edge id="gneE15" from="gneJ17" to="gneJ18" priority="-1">
        <lane id="gneE15_0" index="0" speed="13.89" length="23.28" shape="76.55,-27.57 90.59,-46.14"/>
    </edge>
    <edge id="gneE16" from="gneJ18" to="gneJ19" priority="-1">
        <lane id="gneE16_0" index="0" speed="13.89" length="23.21" shape="95.83,-47.84 118.02,-41.00"/>
    </edge>
    <edge id="gneE17" from="gneJ19" to="gneJ20" priority="-1">
        <lane id="gneE17_0" index="0" speed="13.89" length="24.20" shape="119.41,-40.31 139.05,-26.16"/>
    </edge>
    <edge id="gneE18" from="gneJ20" to="gneJ21" priority="-1">
        <lane id="gneE18_0" index="0" speed="13.89" length="29.53" shape="140.97,-26.20 164.13,-44.53"/>
    </edge>
    <edge id="gneE19" from="gneJ21" to="gneJ22" priority="-1">
        <lane id="gneE19_0" index="0" speed="13.89" length="24.63" shape="164.70,-45.44 170.03,-69.49"/>
    </edge>
    <edge id="gneE20" from="gneJ22" to="gneJ23" priority="-1">
        <lane id="gneE20_0" index="0" speed="13.89" length="30.32" shape="169.95,-70.43 158.51,-98.51"/>
    </edge>
    <edge id="gneE21" from="gneJ23" to="gneJ24" priority="-1">
        <lane id="gneE21_0" index="0" speed="13.89" length="38.43" shape="157.64,-99.39 122.14,-114.12"/>
    </edge>
    <edge id="gneE22" from="gneJ24" to="gneJ25" priority="-1">
        <lane id="gneE22_0" index="0" speed="13.89" length="44.76" shape="121.51,-114.24 76.75,-113.88"/>
    </edge>
    <edge id="gneE23" from="gneJ25" to="gneJ26" priority="-1">
        <lane id="gneE23_0" index="0" speed="13.89" length="46.35" shape="76.26,-113.80 32.28,-99.14"/>
    </edge>
    <edge id="gneE24" from="gneJ26" to="gneJ27" priority="-1">
        <lane id="gneE24_0" index="0" speed="13.89" length="40.18" shape="31.54,-98.61 6.57,-67.13"/>
    </edge>
    <edge id="gneE25" from="gneJ27" to="gneJ28" priority="-1">
        <lane id="gneE25_0" index="0" speed="13.89" length="27.74" shape="6.40,-66.86 -6.16,-42.12"/>
    </edge>
    <edge id="gneE26" from="gneJ28" to="gneJ29" priority="-1">
        <lane id="gneE26_0" index="0" speed="13.89" length="25.66" shape="-6.83,-41.13 -23.74,-21.83"/>
    </edge>
    <edge id="gneE27" from="gneJ29" to="gneJ30" priority="-1">
        <lane id="gneE27_0" index="0" speed="13.89" length="34.73" shape="-23.80,-21.76 -48.27,2.89"/>
    </edge>
    <edge id="gneE28" from="gneJ30" to="gneJ11" priority="-1">
        <lane id="gneE28_0" index="0" speed="13.89" length="31.79" shape="-48.74,4.00 -49.02,35.79"/>
    </edge>
    <edge id="gneE29" from="gneJ11" to="gneJ31" priority="-1">
        <lane id="gneE29_0" index="0" speed="13.89" length="74.15" shape="-40.79,38.67 27.32,9.35"/>
    </edge>
    <edge id="gneE30" from="gneJ31" to="gneJ17" priority="-1">
        <lane id="gneE30_0" index="0" speed="13.89" length="46.77" shape="27.62,9.19 65.68,-18.01"/>
    </edge>

    <junction id="gneJ11" type="priority" x="-50.70" y="44.68" incLanes="-gneE10_0 -gneE29_0 gneE28_0" intLanes=":gneJ11_0_0 :gneJ11_6_0 :gneJ11_2_0 :gneJ11_3_0 :gneJ11_4_0 :gneJ11_5_0" shape="-41.38,52.12 -38.88,46.23 -40.52,45.18 -40.72,44.66 -40.52,44.14 -39.91,43.61 -38.89,43.08 -41.42,37.20 -44.77,38.20 -45.94,38.15 -46.77,37.74 -47.26,36.95 -47.42,35.80 -53.82,35.75 -53.50,39.27 -52.48,42.48 -50.76,45.36 -48.34,47.93 -45.21,50.19">
        <request index="0" response="000000" foes="001000" cont="0"/>
        <request index="1" response="110000" foes="111000" cont="1"/>
        <request index="2" response="100000" foes="100000" cont="0"/>
        <request index="3" response="100011" foes="100011" cont="0"/>
        <request index="4" response="000000" foes="000010" cont="0"/>
        <request index="5" response="000000" foes="001110" cont="0"/>
    </junction>
    <junction id="gneJ12" type="priority" x="-13.37" y="60.55" incLanes="-gneE11_0 gneE10_0" intLanes=":gneJ12_0_0 :gneJ12_1_0" shape="-13.13,63.78 -12.58,57.41 -15.09,63.30 -14.39,63.58 -14.14,63.65 -13.88,63.71 -13.56,63.74">
        <request index="0" response="00" foes="00" cont="0"/>
        <request index="1" response="00" foes="00" cont="0"/>
    </junction>
    <junction id="gneJ14" type="priority" x="28.26" y="64.10" incLanes="-gneE12_0 gneE11_0" intLanes=":gneJ14_0_0 :gneJ14_1_0" shape="30.78,66.32 27.51,60.82 26.97,67.20 28.45,67.27 28.97,67.20 29.47,67.03 30.05,66.75">
        <request index="0" response="00" foes="00" cont="0"/>
        <request index="1" response="00" foes="00" cont="0"/>
    </junction>
    <junction id="gneJ15" type="priority" x="59.06" y="45.80" incLanes="-gneE13_0 gneE12_0" intLanes=":gneJ15_0_0 :gneJ15_1_0" shape="62.11,47.01 56.81,43.42 60.08,48.92 60.96,48.36 61.25,48.13 61.50,47.86 61.77,47.50">
        <request index="0" response="00" foes="00" cont="0"/>
        <request index="1" response="00" foes="00" cont="0"/>
    </junction>
    <junction id="gneJ16" type="priority" x="76.05" y="20.79" incLanes="-gneE14_0 gneE13_0" intLanes=":gneJ16_0_0 :gneJ16_1_0" shape="79.21,19.66 72.82,19.85 78.11,23.45 78.90,22.18 79.10,21.68 79.20,21.15 79.23,20.51">
        <request index="0" response="00" foes="00" cont="0"/>
        <request index="1" response="00" foes="00" cont="0"/>
    </junction>
    <junction id="gneJ17" type="priority" x="74.74" y="-22.51" incLanes="gneE14_0 -gneE15_0 gneE30_0" intLanes=":gneJ17_0_0 :gneJ17_1_0 :gneJ17_2_0 :gneJ17_3_0 :gneJ17_4_0 :gneJ17_6_0" shape="71.84,-12.43 78.24,-12.62 78.08,-15.30 77.89,-17.38 77.86,-19.11 78.15,-20.74 78.93,-22.51 80.38,-24.68 75.28,-28.53 73.43,-26.19 71.94,-24.56 70.57,-23.35 69.07,-22.27 67.21,-21.02 64.75,-19.31 68.47,-14.10 70.29,-14.95 70.94,-14.84 71.41,-14.39 71.72,-13.58">
        <request index="0" response="001000" foes="001000" cont="0"/>
        <request index="1" response="111000" foes="111000" cont="0"/>
        <request index="2" response="000000" foes="100000" cont="0"/>
        <request index="3" response="000000" foes="100011" cont="0"/>
        <request index="4" response="000000" foes="000010" cont="0"/>
        <request index="5" response="001100" foes="001110" cont="1"/>
    </junction>
    <junction id="gneJ18" type="priority" x="93.22" y="-46.97" incLanes="-gneE16_0 gneE15_0" intLanes=":gneJ18_0_0 :gneJ18_1_0" shape="94.42,-43.25 96.31,-49.37 93.62,-49.70 92.41,-49.46 91.29,-48.95 90.26,-48.16 89.31,-47.11">
        <request index="0" response="00" foes="00" cont="0"/>
        <request index="1" response="00" foes="00" cont="0"/>
    </junction>
    <junction id="gneJ19" type="priority" x="118.05" y="-39.31" incLanes="-gneE17_0 gneE16_0" intLanes=":gneJ19_0_0 :gneJ19_1_0" shape="116.60,-36.41 120.34,-41.60 119.71,-42.04 119.47,-42.18 119.22,-42.29 118.91,-42.40 118.49,-42.53">
        <request index="0" response="00" foes="00" cont="0"/>
        <request index="1" response="00" foes="00" cont="0"/>
    </junction>
    <junction id="gneJ20" type="priority" x="140.07" y="-23.45" incLanes="-gneE18_0 gneE17_0" intLanes=":gneJ20_0_0 :gneJ20_1_0" shape="143.95,-22.44 139.98,-27.46 136.24,-22.26 138.84,-21.03 140.13,-20.90 141.41,-21.09 142.69,-21.60">
        <request index="0" response="00" foes="00" cont="0"/>
        <request index="1" response="00" foes="00" cont="0"/>
    </junction>
    <junction id="gneJ21" type="priority" x="166.02" y="-43.98" incLanes="-gneE19_0 gneE18_0" intLanes=":gneJ21_0_0 :gneJ21_1_0" shape="169.39,-44.40 163.14,-45.78 167.11,-40.77 168.35,-41.83 168.71,-42.30 168.97,-42.82 169.18,-43.50">
        <request index="0" response="00" foes="00" cont="0"/>
        <request index="1" response="00" foes="00" cont="0"/>
    </junction>
    <junction id="gneJ22" type="priority" x="171.80" y="-70.11" incLanes="-gneE20_0 gneE19_0" intLanes=":gneJ22_0_0 :gneJ22_1_0" shape="174.39,-72.25 168.46,-69.83 174.71,-68.45 174.97,-69.87 174.98,-70.38 174.89,-70.89 174.69,-71.48">
        <request index="0" response="00" foes="00" cont="0"/>
        <request index="1" response="00" foes="00" cont="0"/>
    </junction>
    <junction id="gneJ23" type="priority" x="159.49" y="-100.35" incLanes="gneE20_0 -gneE21_0" intLanes=":gneJ23_0_0 :gneJ23_1_0" shape="157.03,-97.91 162.95,-100.32 162.12,-101.81 161.58,-102.44 160.96,-102.98 160.26,-103.44 159.48,-103.82">
        <request index="0" response="00" foes="00" cont="0"/>
        <request index="1" response="00" foes="00" cont="0"/>
    </junction>
    <junction id="gneJ24" type="priority" x="122.15" y="-115.85" incLanes="gneE21_0 -gneE22_0" intLanes=":gneJ24_0_0 :gneJ24_1_0" shape="121.53,-112.64 123.98,-118.55 123.09,-118.90 122.76,-118.98 122.43,-119.03 122.02,-119.04 121.48,-119.04">
        <request index="0" response="00" foes="00" cont="0"/>
        <request index="1" response="00" foes="00" cont="0"/>
    </junction>
    <junction id="gneJ25" type="priority" x="76.23" y="-115.47" incLanes="gneE22_0 -gneE23_0" intLanes=":gneJ25_0_0 :gneJ25_1_0" shape="76.77,-112.28 76.71,-118.68 75.97,-118.66 75.71,-118.63 75.45,-118.57 75.15,-118.48 74.74,-118.35">
        <request index="0" response="00" foes="00" cont="0"/>
        <request index="1" response="00" foes="00" cont="0"/>
    </junction>
    <junction id="gneJ26" type="priority" x="30.87" y="-100.35" incLanes="gneE23_0 -gneE24_0" intLanes=":gneJ26_0_0 :gneJ26_1_0" shape="32.79,-97.62 30.77,-103.69 29.47,-103.21 29.05,-102.96 28.67,-102.65 28.27,-102.21 27.77,-101.60">
        <request index="0" response="00" foes="00" cont="0"/>
        <request index="1" response="00" foes="00" cont="0"/>
    </junction>
    <junction id="gneJ27" type="priority" x="5.11" y="-67.87" incLanes="gneE24_0 -gneE25_0" intLanes=":gneJ27_0_0 :gneJ27_1_0" shape="7.82,-66.14 2.81,-70.12 2.52,-69.74 2.42,-69.60 2.33,-69.46 2.24,-69.28 2.11,-69.03">
        <request index="0" response="00" foes="00" cont="0"/>
        <request index="1" response="00" foes="00" cont="0"/>
    </junction>
    <junction id="gneJ28" type="priority" x="-7.77" y="-42.49" incLanes="gneE25_0 -gneE26_0" intLanes=":gneJ28_0_0 :gneJ28_1_0" shape="-4.73,-41.40 -10.44,-44.29 -5.62,-40.08 -5.24,-40.53 -5.12,-40.70 -5.01,-40.87 -4.88,-41.10">
        <request index="0" response="00" foes="00" cont="0"/>
        <request index="1" response="00" foes="00" cont="0"/>
    </junction>
    <junction id="gneJ29" type="priority" x="-24.94" y="-22.89" incLanes="gneE26_0 -gneE27_0" intLanes=":gneJ29_0_0 :gneJ29_1_0" shape="-22.47,-20.85 -27.28,-25.07 -22.74,-20.56">
        <request index="0" response="00" foes="00" cont="0"/>
        <request index="1" response="00" foes="00" cont="0"/>
    </junction>
    <junction id="gneJ30" type="priority" x="-50.32" y="2.68" incLanes="gneE27_0 -gneE28_0" intLanes=":gneJ30_0_0 :gneJ30_1_0" shape="-47.14,4.02 -51.68,-0.49 -52.91,0.89 -53.24,1.47 -53.42,2.11 -53.51,2.91 -53.54,3.96">
        <request index="0" response="00" foes="00" cont="0"/>
        <request index="1" response="00" foes="00" cont="0"/>
    </junction>
    <junction id="gneJ31" type="priority" x="28.27" y="10.69" incLanes="-gneE30_0 gneE29_0" intLanes=":gneJ31_0_0 :gneJ31_1_0" shape="30.41,13.09 26.69,7.88 29.22,13.76 29.68,13.56 29.84,13.47 29.99,13.38 30.17,13.26">
        <request index="0" response="00" foes="00" cont="0"/>
        <request index="1" response="00" foes="00" cont="0"/>
    </junction>

    <junction id=":gneJ11_6_0" type="internal" x="-47.46" y="44.14" incLanes=":gneJ11_1_0 gneE28_0" intLanes=":gneJ11_3_0 :gneJ11_4_0 :gneJ11_5_0"/>
    <junction id=":gneJ17_6_0" type="internal" x="71.59" y="-20.47" incLanes=":gneJ17_5_0 -gneE15_0" intLanes=":gneJ17_1_0 :gneJ17_2_0 :gneJ17_3_0"/>

    <connection from="-gneE10" to="-gneE28" fromLane="0" toLane="0" via=":gneJ11_0_0" dir="L" state="M"/>
    <connection from="-gneE10" to="gneE29" fromLane="0" toLane="0" via=":gneJ11_1_0" dir="l" state="m"/>
    <connection from="-gneE11" to="-gneE10" fromLane="0" toLane="0" via=":gneJ12_0_0" dir="s" state="M"/>
    <connection from="-gneE12" to="-gneE11" fromLane="0" toLane="0" via=":gneJ14_0_0" dir="s" state="M"/>
    <connection from="-gneE13" to="-gneE12" fromLane="0" toLane="0" via=":gneJ15_0_0" dir="s" state="M"/>
    <connection from="-gneE14" to="-gneE13" fromLane="0" toLane="0" via=":gneJ16_0_0" dir="s" state="M"/>
    <connection from="-gneE15" to="-gneE14" fromLane="0" toLane="0" via=":gneJ17_2_0" dir="R" state="M"/>
    <connection from="-gneE15" to="-gneE30" fromLane="0" toLane="0" via=":gneJ17_3_0" dir="s" state="M"/>
    <connection from="-gneE16" to="-gneE15" fromLane="0" toLane="0" via=":gneJ18_0_0" dir="r" state="M"/>
    <connection from="-gneE17" to="-gneE16" fromLane="0" toLane="0" via=":gneJ19_0_0" dir="s" state="M"/>
    <connection from="-gneE18" to="-gneE17" fromLane="0" toLane="0" via=":gneJ20_0_0" dir="l" state="M"/>
    <connection from="-gneE19" to="-gneE18" fromLane="0" toLane="0" via=":gneJ21_0_0" dir="s" state="M"/>
    <connection from="-gneE20" to="-gneE19" fromLane="0" toLane="0" via=":gneJ22_0_0" dir="s" state="M"/>
    <connection from="-gneE21" to="-gneE20" fromLane="0" toLane="0" via=":gneJ23_1_0" dir="l" state="M"/>
    <connection from="-gneE22" to="-gneE21" fromLane="0" toLane="0" via=":gneJ24_1_0" dir="s" state="M"/>
    <connection from="-gneE23" to="-gneE22" fromLane="0" toLane="0" via=":gneJ25_1_0" dir="s" state="M"/>
    <connection from="-gneE24" to="-gneE23" fromLane="0" toLane="0" via=":gneJ26_1_0" dir="s" state="M"/>
    <connection from="-gneE25" to="-gneE24" fromLane="0" toLane="0" via=":gneJ27_1_0" dir="s" state="M"/>
    <connection from="-gneE26" to="-gneE25" fromLane="0" toLane="0" via=":gneJ28_1_0" dir="s" state="M"/>
    <connection from="-gneE27" to="-gneE26" fromLane="0" toLane="0" via=":gneJ29_1_0" dir="s" state="M"/>
    <connection from="-gneE28" to="-gneE27" fromLane="0" toLane="0" via=":gneJ30_1_0" dir="l" state="M"/>
    <connection from="-gneE29" to="gneE10" fromLane="0" toLane="0" via=":gneJ11_2_0" dir="r" state="m"/>
    <connection from="-gneE29" to="-gneE28" fromLane="0" toLane="0" via=":gneJ11_3_0" dir="l" state="m"/>
    <connection from="-gneE30" to="-gneE29" fromLane="0" toLane="0" via=":gneJ31_0_0" dir="s" state="M"/>
    <connection from="gneE10" to="gneE11" fromLane="0" toLane="0" via=":gneJ12_1_0" dir="s" state="M"/>
    <connection from="gneE11" to="gneE12" fromLane="0" toLane="0" via=":gneJ14_1_0" dir="s" state="M"/>