<?xml version="1.0" encoding="UTF-8"?>

<!-- generated on Fri Sep 18 08:13:22 2020 by Eclipse SUMO duarouter Version 1.6.0
<configuration xmlns:xsi="http://www.w3.org/2001/XMLSchema-instance" xsi:noNamespaceSchemaLocation="http://sumo.dlr.de/xsd/duarouterConfiguration.xsd">

    <input>
        <net-file value="demo7/map.net.xml"/>
        <route-files value="/tmp/tmpa8m18j_n/trips.trips.xml"/>
    </input>

    <output>
        <output-file value="demo7/traffic/30_patient_car.rou.xml"/>
        <alternatives-output value="demo7/traffic/30_patient_car.rou.alt.xml"/>
    </output>

    <processing>
        <unsorted-input value="true"/>
        <repair value="true"/>
    </processing>

    <report>
        <error-log value="/tmp/smarts/_duarouter_routing/traffic/30_patient_car.log"/>
        <no-step-log value="true"/>
    </report>

    <random_number>
        <seed value="42"/>
    </random_number>

</configuration>
-->

<routes xmlns:xsi="http://www.w3.org/2001/XMLSchema-instance" xsi:noNamespaceSchemaLocation="http://sumo.dlr.de/xsd/routes_file.xsd">
    <vType id="actor-car--5539789264440368717" minGap="2.50" speedFactor="normc(0.50,0.20,0.20,2.00)" vClass="passenger" impatience="0.50" lcCooperative="0.5" lcImpatience="0" jmDriveAfterYellowTime="1.0" accel="2.6" decel="4.5" sigma="0.5"/>
    <vehicle id="-flow-random-route-1245f4ad-4848-4433-806f-985da0c6b7dd-1648865307791925618-11-0.0" type="actor-car--5539789264440368717" depart="0.00" departLane="1" departPos="64.19" departSpeed="max" arrivalLane="2" arrivalPos="10.60">
        <route edges="gneE10 gneE11"/>
    </vehicle>
    <vehicle id="-flow-random-route-15c9756c-800c-4581-bb18-d676059905af-1648865307791925618-1-0.0" type="actor-car--5539789264440368717" depart="0.00" departLane="3" departPos="17.14" departSpeed="max" arrivalLane="2" arrivalPos="83.26">
        <route edges="gneE11 gneE12"/>
    </vehicle>
    <vehicle id="-flow-random-route-25123559-3a10-489d-9fd2-e67f7bba3141-1648865307791925618-20-0.0" type="actor-car--5539789264440368717" depart="0.00" departLane="4" departPos="7.65" departSpeed="max" arrivalLane="0" arrivalPos="68.96">
        <route edges="gneE18 gneE10"/>
    </vehicle>
    <vehicle id="-flow-random-route-49325545-0c6f-4549-8831-efab0f72892b-1648865307791925618-3-0.0" type="actor-car--5539789264440368717" depart="0.00" departLane="3" departPos="4.64" departSpeed="max" arrivalLane="1" arrivalPos="94.28">
        <route edges="gneE13 gneE17"/>
    </vehicle>
    <vehicle id="-flow-random-route-4ad44d73-99d9-4457-9dc9-2b4618cb086c-1648865307791925618-24-0.0" type="actor-car--5539789264440368717" depart="0.00" departLane="4" departPos="41.24" departSpeed="max" arrivalLane="1" arrivalPos="24.07">
        <route edges="gneE17 gneE15"/>
    </vehicle>
    <vehicle id="-flow-random-route-51015e29-ead8-43fa-9ade-54f34132e689-1648865307791925618-10-0.0" type="actor-car--5539789264440368717" depart="0.00" departLane="3" departPos="0.21" departSpeed="max" arrivalLane="3" arrivalPos="5.45">
        <route edges="gneE10 gneE11"/>
    </vehicle>
    <vehicle id="-flow-random-route-54f248cc-dc37-4535-990c-508c5c204161-1648865307791925618-15-0.0" type="actor-car--5539789264440368717" depart="0.00" departLane="4" departPos="8.06" departSpeed="max" arrivalLane="4" arrivalPos="25.73">
        <route edges="gneE13 gneE17"/>
    </vehicle>
    <vehicle id="-flow-random-route-67a3d485-58b4-4408-b7f7-278a75949d09-1648865307791925618-29-0.0" type="actor-car--5539789264440368717" depart="0.00" departLane="2" departPos="3.55" departSpeed="max" arrivalLane="3" arrivalPos="9.42">
        <route edges="gneE18 gneE10"/>
    </vehicle>
    <vehicle id="-flow-random-route-68175fe8-c821-4c7d-9ac5-57701cabc955-1648865307791925618-17-0.0" type="actor-car--5539789264440368717" depart="0.00" departLane="2" departPos="5.78" departSpeed="max" arrivalLane="1" arrivalPos="111.67">
        <route edges="gneE15 gneE8"/>
    </vehicle>
    <vehicle id="-flow-random-route-757af838-3735-44fa-be07-40c38572693a-1648865307791925618-22-0.0" type="actor-car--5539789264440368717" depart="0.00" departLane="3" departPos="7.22" departSpeed="max" arrivalLane="2" arrivalPos="15.04">
        <route edges="gneE17 gneE15"/>
    </vehicle>
    <vehicle id="-flow-random-route-7ffbb79f-0e41-4236-922d-bb897b2c6ba3-1648865307791925618-0-0.0" type="actor-car--5539789264440368717" depart="0.00" departLane="4" departPos="74.24" departSpeed="max" arrivalLane="4" arrivalPos="18.76">
        <route edges="gneE10 gneE11"/>
    </vehicle>
    <vehicle id="-flow-random-route-8ea2b507-208c-43f6-928b-e17f34659c6d-1648865307791925618-18-0.0" type="actor-car--5539789264440368717" depart="0.00" departLane="1" departPos="12.19" departSpeed="max" arrivalLane="0" arrivalPos="71.38">
        <route edges="gneE15 gneE8"/>
    </vehicle>
    <vehicle id="-flow-random-route-8f50e660-74b8-48c7-b125-ef76b699a7be-1648865307791925618-7-0.0" type="actor-car--5539789264440368717" depart="0.00" departLane="4" departPos="11.16" departSpeed="max" arrivalLane="4" arrivalPos="9.80">
        <route edges="gneE12 gneE13"/>
    </vehicle>
    <vehicle id="-flow-random-route-91ce75fb-3876-474e-825d-fee63465a63f-1648865307791925618-21-0.0" type="actor-car--5539789264440368717" depart="0.00" departLane="1" departPos="12.65" departSpeed="max" arrivalLane="2" arrivalPos="55.27">
        <route edges="gneE11 gneE12"/>
    </vehicle>
    <vehicle id="-flow-random-route-bbcd3e0f-bb66-43b9-93d9-2d6d4093eb92-1648865307791925618-5-0.0" type="actor-car--5539789264440368717" depart="0.00" departLane="0" departPos="18.48" departSpeed="max" arrivalLane="1" arrivalPos="92.84">
        <route edges="gneE11 gneE12"/>
    </vehicle>
    <vehicle id="-flow-random-route-bbe7c04b-8bb1-4912-b536-a318ea7cdc62-1648865307791925618-16-0.0" type="actor-car--5539789264440368717" depart="0.00" departLane="0" departPos="0.96" departSpeed="max" arrivalLane="4" arrivalPos="24.09">
        <route edges="gneE17 gneE15"/>
    </vehicle>
    <vehicle id="-flow-random-route-bdb00f31-d102-4418-b23d-5fbfde3a25db-1648865307791925618-4-0.0" type="actor-car--5539789264440368717" depart="0.00" departLane="3" departPos="16.49" departSpeed="max" arrivalLane="1" arrivalPos="36.31">
        <route edges="gneE11 gneE12"/>
    </vehicle>
    <vehicle id="-flow-random-route-c156ca68-7f58-4a9f-a6fd-cebf395d0d2c-1648865307791925618-6-0.0" type="actor-car--5539789264440368717" depart="0.00" departLane="4" departPos="135.58" departSpeed="max" arrivalLane="4" arrivalPos="4.36">
        <route edges="gneE12 gneE13"/>
    </vehicle>
    <vehicle id="-flow-random-route-cc6ce55f-d56c-4342-9f87-d915aaffeedc-1648865307791925618-9-0.0" type="actor-car--5539789264440368717" depart="0.00" departLane="2" departPos="19.84" departSpeed="max" arrivalLane="2" arrivalPos="10.39">
        <route edges="gneE10 gneE11"/>
    </vehicle>
    <vehicle id="-flow-random-route-cd89425b-1a24-409d-ae94-acc6807cec07-1648865307791925618-12-0.0" type="actor-car--5539789264440368717" depart="0.00" departLane="0" departPos="68.28" departSpeed="max" arrivalLane="2" arrivalPos="23.77">
        <route edges="gneE17 gneE15"/>
    </vehicle>
    <vehicle id="-flow-random-route-cf678b79-f5b3-4e0e-b467-93aa66374636-1648865307791925618-26-0.0" type="actor-car--5539789264440368717" depart="0.00" departLane="0" departPos="12.27" departSpeed="max" arrivalLane="2" arrivalPos="99.16">
        <route edges="gneE11 gneE12"/>
    </vehicle>
    <vehicle id="-flow-random-route-cff0c763-0755-4db8-b6d8-501852322f75-1648865307791925618-23-0.0" type="actor-car--5539789264440368717" depart="0.00" departLane="0" departPos="9.11" departSpeed="max" arrivalLane="4" arrivalPos="13.33">
        <route edges="gneE11 gneE12"/>
    </vehicle>
    <vehicle id="-flow-random-route-dc6016d5-a34d-4f90-8742-c465f1b50d37-1648865307791925618-8-0.0" type="actor-car--5539789264440368717" depart="0.00" departLane="4" departPos="15.53" departSpeed="max" arrivalLane="1" arrivalPos="97.04">
        <route edges="gneE11 gneE12"/>
    </vehicle>
    <vehicle id="-flow-random-route-e3032051-7336-48df-af3f-762040d457ac-1648865307791925618-27-0.0" type="actor-car--5539789264440368717" depart="0.00" departLane="0" departPos="13.99" departSpeed="max" arrivalLane="2" arrivalPos="78.00">
        <route edges="gneE18 gneE10"/>
    </vehicle>
    <vehicle id="-flow-random-route-e3b108de-ad22-4b2c-bb79-933b79ad10e6-1648865307791925618-13-0.0" type="actor-car--5539789264440368717" depart="0.00" departLane="4" departPos="87.74" departSpeed="max" arrivalLane="0" arrivalPos="10.99">
        <route edges="gneE17 gneE15"/>
    </vehicle>
    <vehicle id="-flow-random-route-e9c6e24d-5894-4a8c-bcfa-39a04a7be662-1648865307791925618-28-0.0" type="actor-car--5539789264440368717" depart="0.00" departLane="0" departPos="13.57" departSpeed="max" arrivalLane="3" arrivalPos="44.68">
        <route edges="gneE11 gneE12"/>
    </vehicle>
    <vehicle id="-flow-random-route-f0cc93bb-29c7-43fc-8571-27ddea824b85-1648865307791925618-2-0.0" type="actor-car--5539789264440368717" depart="0.00" departLane="3" departPos="13.31" departSpeed="max" arrivalLane="3" arrivalPos="71.34">
        <route edges="gneE15 gneE8"/>
    </vehicle>
    <vehicle id="-flow-random-route-f2bb3878-a90f-4e76-83b7-7697f4ac105d-1648865307791925618-14-0.0" type="actor-car--5539789264440368717" depart="0.00" departLane="0" departPos="10.56" departSpeed="max" arrivalLane="1" arrivalPos="55.15">
        <route edges="gneE13 gneE17"/>
    </vehicle>
    <vehicle id="-flow-random-route-f52215c5-39a3-4e2d-ae57-f97d4692f6b7-1648865307791925618-19-0.0" type="actor-car--5539789264440368717" depart="0.00" departLane="0" departPos="6.38" departSpeed="max" arrivalLane="3" arrivalPos="17.47">
        <route edges="gneE8 gneE18"/>
    </vehicle>
    <vehicle id="-flow-random-route-fae571e2-96af-422d-b6da-5f16c72139e0-1648865307791925618-25-0.0" type="actor-car--5539789264440368717" depart="0.00" departLane="4" departPos="56.14" departSpeed="max" arrivalLane="1" arrivalPos="16.13">
        <route edges="gneE10 gneE11"/>
    </vehicle>
    <vehicle id="-flow-random-route-1245f4ad-4848-4433-806f-985da0c6b7dd-1648865307791925618-11-0.1" type="actor-car--5539789264440368717" depart="120.00" departLane="1" departPos="64.19" departSpeed="max" arrivalLane="2" arrivalPos="10.60">
        <route edges="gneE10 gneE11"/>
    </vehicle>
    <vehicle id="-flow-random-route-15c9756c-800c-4581-bb18-d676059905af-1648865307791925618-1-0.1" type="actor-car--5539789264440368717" depart="120.00" departLane="3" departPos="17.14" departSpeed="max" arrivalLane="2" arrivalPos="83.26">
        <route edges="gneE11 gneE12"/>
    </vehicle>
    <vehicle id="-flow-random-route-25123559-3a10-489d-9fd2-e67f7bba3141-1648865307791925618-20-0.1" type="actor-car--5539789264440368717" depart="120.00" departLane="4" departPos="7.65" departSpeed="max" arrivalLane="0" arrivalPos="68.96">
        <route edges="gneE18 gneE10"/>
    </vehicle>
    <vehicle id="-flow-random-route-49325545-0c6f-4549-8831-efab0f72892b-1648865307791925618-3-0.1" type="actor-car--5539789264440368717" depart="120.00" departLane="3" departPos="4.64" departSpeed="max" arrivalLane="1" arrivalPos="94.28">
        <route edges="gneE13 gneE17"/>
    </vehicle>
    <vehicle id="-flow-random-route-4ad44d73-99d9-4457-9dc9-2b4618cb086c-1648865307791925618-24-0.1" type="actor-car--5539789264440368717" depart="120.00" departLane="4" departPos="41.24" departSpeed="max" arrivalLane="1" arrivalPos="24.07">
        <route edges="gneE17 gneE15"/>
    </vehicle>
    <vehicle id="-flow-random-route-51015e29-ead8-43fa-9ade-54f34132e689-1648865307791925618-10-0.1" type="actor-car--5539789264440368717" depart="120.00" departLane="3" departPos="0.21" departSpeed="max" arrivalLane="3" arrivalPos="5.45">
        <route edges="gneE10 gneE11"/>
    </vehicle>
    <vehicle id="-flow-random-route-54f248cc-dc37-4535-990c-508c5c204161-1648865307791925618-15-0.1" type="actor-car--5539789264440368717" depart="120.00" departLane="4" departPos="8.06" departSpeed="max" arrivalLane="4" arrivalPos="25.73">
        <route edges="gneE13 gneE17"/>
    </vehicle>
    <vehicle id="-flow-random-route-67a3d485-58b4-4408-b7f7-278a75949d09-1648865307791925618-29-0.1" type="actor-car--5539789264440368717" depart="120.00" departLane="2" departPos="3.55" departSpeed="max" arrivalLane="3" arrivalPos="9.42">
        <route edges="gneE18 gneE10"/>
    </vehicle>
    <vehicle id="-flow-random-route-68175fe8-c821-4c7d-9ac5-57701cabc955-1648865307791925618-17-0.1" type="actor-car--5539789264440368717" depart="120.00" departLane="2" departPos="5.78" departSpeed="max" arrivalLane="1" arrivalPos="111.67">
        <route edges="gneE15 gneE8"/>
    </vehicle>
    <vehicle id="-flow-random-route-757af838-3735-44fa-be07-40c38572693a-1648865307791925618-22-0.1" type="actor-car--5539789264440368717" depart="120.00" departLane="3" departPos="7.22" departSpeed="max" arrivalLane="2" arrivalPos="15.04">
        <route edges="gneE17 gneE15"/>
    </vehicle>
    <vehicle id="-flow-random-route-7ffbb79f-0e41-4236-922d-bb897b2c6ba3-1648865307791925618-0-0.1" type="actor-car--5539789264440368717" depart="120.00" departLane="4" departPos="74.24" departSpeed="max" arrivalLane="4" arrivalPos="18.76">
        <route edges="gneE10 gneE11"/>
    </vehicle>
    <vehicle id="-flow-random-route-8ea2b507-208c-43f6-928b-e17f34659c6d-1648865307791925618-18-0.1" type="actor-car--5539789264440368717" depart="120.00" departLane="1" departPos="12.19" departSpeed="max" arrivalLane="0" arrivalPos="71.38">
        <route edges="gneE15 gneE8"/>
    </vehicle>
    <vehicle id="-flow-random-route-8f50e660-74b8-48c7-b125-ef76b699a7be-1648865307791925618-7-0.1" type="actor-car--5539789264440368717" depart="120.00" departLane="4" departPos="11.16" departSpeed="max" arrivalLane="4" arrivalPos="9.80">
        <route edges="gneE12 gneE13"/>
    </vehicle>
    <vehicle id="-flow-random-route-91ce75fb-3876-474e-825d-fee63465a63f-1648865307791925618-21-0.1" type="actor-car--5539789264440368717" depart="120.00" departLane="1" departPos="12.65" departSpeed="max" arrivalLane="2" arrivalPos="55.27">
        <route edges="gneE11 gneE12"/>
    </vehicle>
    <vehicle id="-flow-random-route-bbcd3e0f-bb66-43b9-93d9-2d6d4093eb92-1648865307791925618-5-0.1" type="actor-car--5539789264440368717" depart="120.00" departLane="0" departPos="18.48" departSpeed="max" arrivalLane="1" arrivalPos="92.84">
        <route edges="gneE11 gneE12"/>
    </vehicle>
    <vehicle id="-flow-random-route-bbe7c04b-8bb1-4912-b536-a318ea7cdc62-1648865307791925618-16-0.1" type="actor-car--5539789264440368717" depart="120.00" departLane="0" departPos="0.96" departSpeed="max" arrivalLane="4" arrivalPos="24.09">
        <route edges="gneE17 gneE15"/>
    </vehicle>
    <vehicle id="-flow-random-route-bdb00f31-d102-4418-b23d-5fbfde3a25db-1648865307791925618-4-0.1" type="actor-car--5539789264440368717" depart="120.00" departLane="3" departPos="16.49" departSpeed="max" arrivalLane="1" arrivalPos="36.31">
        <route edges="gneE11 gneE12"/>
    </vehicle>
    <vehicle id="-flow-random-route-c156ca68-7f58-4a9f-a6fd-cebf395d0d2c-1648865307791925618-6-0.1" type="actor-car--5539789264440368717" depart="120.00" departLane="4" departPos="135.58" departSpeed="max" arrivalLane="4" arrivalPos="4.36">
        <route edges="gneE12 gneE13"/>
    </vehicle>
    <vehicle id="-flow-random-route-cc6ce55f-d56c-4342-9f87-d915aaffeedc-1648865307791925618-9-0.1" type="actor-car--5539789264440368717" depart="120.00" departLane="2" departPos="19.84" departSpeed="max" arrivalLane="2" arrivalPos="10.39">
        <route edges="gneE10 gneE11"/>
    </vehicle>
    <vehicle id="-flow-random-route-cd89425b-1a24-409d-ae94-acc6807cec07-1648865307791925618-12-0.1" type="actor-car--5539789264440368717" depart="120.00" departLane="0" departPos="68.28" departSpeed="max" arrivalLane="2" arrivalPos="23.77">
        <route edges="gneE17 gneE15"/>
    </vehicle>
    <vehicle id="-flow-random-route-cf678b79-f5b3-4e0e-b467-93aa66374636-1648865307791925618-26-0.1" type="actor-car--5539789264440368717" depart="120.00" departLane="0" departPos="12.27" departSpeed="max" arrivalLane="2" arrivalPos="99.16">
        <route edges="gneE11 gneE12"/>
    </vehicle>
    <vehicle id="-flow-random-route-cff0c763-0755-4db8-b6d8-501852322f75-1648865307791925618-23-0.1" type="actor-car--5539789264440368717" depart="120.00" departLane="0" departPos="9.11" departSpeed="max" arrivalLane="4" arrivalPos="13.33">
        <route edges="gneE11 gneE12"/>
    </vehicle>
    <vehicle id="-flow-random-route-dc6016d5-a34d-4f90-8742-c465f1b50d37-1648865307791925618-8-0.1" type="actor-car--5539789264440368717" depart="120.00" departLane="4" departPos="15.53" departSpeed="max" arrivalLane="1" arrivalPos="97.04">
        <route edges="gneE11 gneE12"/>
    </vehicle>
    <vehicle id="-flow-random-route-e3032051-7336-48df-af3f-762040d457ac-1648865307791925618-27-0.1" type="actor-car--5539789264440368717" depart="120.00" departLane="0" departPos="13.99" departSpeed="max" arrivalLane="2" arrivalPos="78.00">
        <route edges="gneE18 gneE10"/>
    </vehicle>
    <vehicle id="-flow-random-route-e3b108de-ad22-4b2c-bb79-933b79ad10e6-1648865307791925618-13-0.1" type="actor-car--5539789264440368717" depart="120.00" departLane="4" departPos="87.74" departSpeed="max" arrivalLane="0" arrivalPos="10.99">
        <route edges="gneE17 gneE15"/>
    </vehicle>
    <vehicle id="-flow-random-route-e9c6e24d-5894-4a8c-bcfa-39a04a7be662-1648865307791925618-28-0.1" type="actor-car--5539789264440368717" depart="120.00" departLane="0" departPos="13.57" departSpeed="max" arrivalLane="3" arrivalPos="44.68">
        <route edges="gneE11 gneE12"/>
    </vehicle>
    <vehicle id="-flow-random-route-f0cc93bb-29c7-43fc-8571-27ddea824b85-1648865307791925618-2-0.1" type="actor-car--5539789264440368717" depart="120.00" departLane="3" departPos="13.31" departSpeed="max" arrivalLane="3" arrivalPos="71.34">
        <route edges="gneE15 gneE8"/>
    </vehicle>
    <vehicle id="-flow-random-route-f2bb3878-a90f-4e76-83b7-7697f4ac105d-1648865307791925618-14-0.1" type="actor-car--5539789264440368717" depart="120.00" departLane="0" departPos="10.56" departSpeed="max" arrivalLane="1" arrivalPos="55.15">
        <route edges="gneE13 gneE17"/>
    </vehicle>
    <vehicle id="-flow-random-route-f52215c5-39a3-4e2d-ae57-f97d4692f6b7-1648865307791925618-19-0.1" type="actor-car--5539789264440368717" depart="120.00" departLane="0" departPos="6.38" departSpeed="max" arrivalLane="3" arrivalPos="17.47">
        <route edges="gneE8 gneE18"/>
    </vehicle>
    <vehicle id="-flow-random-route-fae571e2-96af-422d-b6da-5f16c72139e0-1648865307791925618-25-0.1" type="actor-car--5539789264440368717" depart="120.00" departLane="4" departPos="56.14" departSpeed="max" arrivalLane="1" arrivalPos="16.13">
        <route edges="gneE10 gneE11"/>
    </vehicle>
    <vehicle id="-flow-random-route-1245f4ad-4848-4433-806f-985da0c6b7dd-1648865307791925618-11-0.2" type="actor-car--5539789264440368717" depart="240.00" departLane="1" departPos="64.19" departSpeed="max" arrivalLane="2" arrivalPos="10.60">
        <route edges="gneE10 gneE11"/>
    </vehicle>
    <vehicle id="-flow-random-route-15c9756c-800c-4581-bb18-d676059905af-1648865307791925618-1-0.2" type="actor-car--5539789264440368717" depart="240.00" departLane="3" departPos="17.14" departSpeed="max" arrivalLane="2" arrivalPos="83.26">
        <route edges="gneE11 gneE12"/>
    </vehicle>
    <vehicle id="-flow-random-route-25123559-3a10-489d-9fd2-e67f7bba3141-1648865307791925618-20-0.2" type="actor-car--5539789264440368717" depart="240.00" departLane="4" departPos="7.65" departSpeed="max" arrivalLane="0" arrivalPos="68.96">
        <route edges="gneE18 gneE10"/>
    </vehicle>
    <vehicle id="-flow-random-route-49325545-0c6f-4549-8831-efab0f72892b-1648865307791925618-3-0.2" type="actor-car--5539789264440368717" depart="240.00" departLane="3" departPos="4.64" departSpeed="max" arrivalLane="1" arrivalPos="94.28">
        <route edges="gneE13 gneE17"/>
    </vehicle>
    <vehicle id="-flow-random-route-4ad44d73-99d9-4457-9dc9-2b4618cb086c-1648865307791925618-24-0.2" type="actor-car--5539789264440368717" depart="240.00" departLane="4" departPos="41.24" departSpeed="max" arrivalLane="1" arrivalPos="24.07">
        <route edges="gneE17 gneE15"/>
    </vehicle>
    <vehicle id="-flow-random-route-51015e29-ead8-43fa-9ade-54f34132e689-1648865307791925618-10-0.2" type="actor-car--5539789264440368717" depart="240.00" departLane="3" departPos="0.21" departSpeed="max" arrivalLane="3" arrivalPos="5.45">
        <route edges="gneE10 gneE11"/>
    </vehicle>
    <vehicle id="-flow-random-route-54f248cc-dc37-4535-990c-508c5c204161-1648865307791925618-15-0.2" type="actor-car--5539789264440368717" depart="240.00" departLane="4" departPos="8.06" departSpeed="max" arrivalLane="4" arrivalPos="25.73">
        <route edges="gneE13 gneE17"/>
    </vehicle>
    <vehicle id="-flow-random-route-67a3d485-58b4-4408-b7f7-278a75949d09-1648865307791925618-29-0.2" type="actor-car--5539789264440368717" depart="240.00" departLane="2" departPos="3.55" departSpeed="max" arrivalLane="3" arrivalPos="9.42">
        <route edges="gneE18 gneE10"/>
    </vehicle>
    <vehicle id="-flow-random-route-68175fe8-c821-4c7d-9ac5-57701cabc955-1648865307791925618-17-0.2" type="actor-car--5539789264440368717" depart="240.00" departLane="2" departPos="5.78" departSpeed="max" arrivalLane="1" arrivalPos="111.67">
        <route edges="gneE15 gneE8"/>
    </vehicle>
    <vehicle id="-flow-random-route-757af838-3735-44fa-be07-40c38572693a-1648865307791925618-22-0.2" type="actor-car--5539789264440368717" depart="240.00" departLane="3" departPos="7.22" departSpeed="max" arrivalLane="2" arrivalPos="15.04">
        <route edges="gneE17 gneE15"/>
    </vehicle>
    <vehicle id="-flow-random-route-7ffbb79f-0e41-4236-922d-bb897b2c6ba3-1648865307791925618-0-0.2" type="actor-car--5539789264440368717" depart="240.00" departLane="4" departPos="74.24" departSpeed="max" arrivalLane="4" arrivalPos="18.76">
        <route edges="gneE10 gneE11"/>
    </vehicle>
    <vehicle id="-flow-random-route-8ea2b507-208c-43f6-928b-e17f34659c6d-1648865307791925618-18-0.2" type="actor-car--5539789264440368717" depart="240.00" departLane="1" departPos="12.19" departSpeed="max" arrivalLane="0" arrivalPos="71.38">
        <route edges="gneE15 gneE8"/>
    </vehicle>
    <vehicle id="-flow-random-route-8f50e660-74b8-48c7-b125-ef76b699a7be-1648865307791925618-7-0.2" type="actor-car--5539789264440368717" depart="240.00" departLane="4" departPos="11.16" departSpeed="max" arrivalLane="4" arrivalPos="9.80">
        <route edges="gneE12 gneE13"/>
    </vehicle>
    <vehicle id="-flow-random-route-91ce75fb-3876-474e-825d-fee63465a63f-1648865307791925618-21-0.2" type="actor-car--5539789264440368717" depart="240.00" departLane="1" departPos="12.65" departSpeed="max" arrivalLane="2" arrivalPos="55.27">
        <route edges="gneE11 gneE12"/>
    </vehicle>
    <vehicle id="-flow-random-route-bbcd3e0f-bb66-43b9-93d9-2d6d4093eb92-1648865307791925618-5-0.2" type="actor-car--5539789264440368717" depart="240.00" departLane="0" departPos="18.48" departSpeed="max" arrivalLane="1" arrivalPos="92.84">
        <route edges="gneE11 gneE12"/>
    </vehicle>
    <vehicle id="-flow-random-route-bbe7c04b-8bb1-4912-b536-a318ea7cdc62-1648865307791925618-16-0.2" type="actor-car--5539789264440368717" depart="240.00" departLane="0" departPos="0.96" departSpeed="max" arrivalLane="4" arrivalPos="24.09">
        <route edges="gneE17 gneE15"/>
    </vehicle>
    <vehicle id="-flow-random-route-bdb00f31-d102-4418-b23d-5fbfde3a25db-1648865307791925618-4-0.2" type="actor-car--5539789264440368717" depart="240.00" departLane="3" departPos="16.49" departSpeed="max" arrivalLane="1" arrivalPos="36.31">
        <route edges="gneE11 gneE12"/>
    </vehicle>
    <vehicle id="-flow-random-route-c156ca68-7f58-4a9f-a6fd-cebf395d0d2c-1648865307791925618-6-0.2" type="actor-car--5539789264440368717" depart="240.00" departLane="4" departPos="135.58" departSpeed="max" arrivalLane="4" arrivalPos="4.36">
        <route edges="gneE12 gneE13"/>
    </vehicle>
    <vehicle id="-flow-random-route-cc6ce55f-d56c-4342-9f87-d915aaffeedc-1648865307791925618-9-0.2" type="actor-car--5539789264440368717" depart="240.00" departLane="2" departPos="19.84" departSpeed="max" arrivalLane="2" arrivalPos="10.39">
        <route edges="gneE10 gneE11"/>
    </vehicle>
    <vehicle id="-flow-random-route-cd89425b-1a24-409d-ae94-acc6807cec07-1648865307791925618-12-0.2" type="actor-car--5539789264440368717" depart="240.00" departLane="0" departPos="68.28" departSpeed="max" arrivalLane="2" arrivalPos="23.77">
        <route edges="gneE17 gneE15"/>
    </vehicle>
    <vehicle id="-flow-random-route-cf678b79-f5b3-4e0e-b467-93aa66374636-1648865307791925618-26-0.2" type="actor-car--5539789264440368717" depart="240.00" departLane="0" departPos="12.27" departSpeed="max" arrivalLane="2" arrivalPos="99.16">
        <route edges="gneE11 gneE12"/>
    </vehicle>
    <vehicle id="-flow-random-route-cff0c763-0755-4db8-b6d8-501852322f75-1648865307791925618-23-0.2" type="actor-car--5539789264440368717" depart="240.00" departLane="0" departPos="9.11" departSpeed="max" arrivalLane="4" arrivalPos="13.33">
        <route edges="gneE11 gneE12"/>
    </vehicle>
    <vehicle id="-flow-random-route-dc6016d5-a34d-4f90-8742-c465f1b50d37-1648865307791925618-8-0.2" type="actor-car--5539789264440368717" depart="240.00" departLane="4" departPos="15.53" departSpeed="max" arrivalLane="1" arrivalPos="97.04">
        <route edges="gneE11 gneE12"/>
    </vehicle>
    <vehicle id="-flow-random-route-e3032051-7336-48df-af3f-762040d457ac-1648865307791925618-27-0.2" type="actor-car--5539789264440368717" depart="240.00" departLane="0" departPos="13.99" departSpeed="max" arrivalLane="2" arrivalPos="78.00">
        <route edges="gneE18 gneE10"/>
    </vehicle>
    <vehicle id="-flow-random-route-e3b108de-ad22-4b2c-bb79-933b79ad10e6-1648865307791925618-13-0.2" type="actor-car--5539789264440368717" depart="240.00" departLane="4" departPos="87.74" departSpeed="max" arrivalLane="0" arrivalPos="10.99">
        <route edges="gneE17 gneE15"/>
    </vehicle>
    <vehicle id="-flow-random-route-e9c6e24d-5894-4a8c-bcfa-39a04a7be662-1648865307791925618-28-0.2" type="actor-car--5539789264440368717" depart="240.00" departLane="0" departPos="13.57" departSpeed="max" arrivalLane="3" arrivalPos="44.68">
        <route edges="gneE11 gneE12"/>
    </vehicle>
    <vehicle id="-flow-random-route-f0cc93bb-29c7-43fc-8571-27ddea824b85-1648865307791925618-2-0.2" type="actor-car--5539789264440368717" depart="240.00" departLane="3" departPos="13.31" departSpeed="max" arrivalLane="3" arrivalPos="71.34">
        <route edges="gneE15 gneE8"/>
    </vehicle>
    <vehicle id="-flow-random-route-f2bb3878-a90f-4e76-83b7-7697f4ac105d-1648865307791925618-14-0.2" type="actor-car--5539789264440368717" depart="240.00" departLane="0" departPos="10.56" departSpeed="max" arrivalLane="1" arrivalPos="55.15">
        <route edges="gneE13 gneE17"/>
    </vehicle>
    <vehicle id="-flow-random-route-f52215c5-39a3-4e2d-ae57-f97d4692f6b7-1648865307791925618-19-0.2" type="actor-car--5539789264440368717" depart="240.00" departLane="0" departPos="6.38" departSpeed="max" arrivalLane="3" arrivalPos="17.47">
        <route edges="gneE8 gneE18"/>
    </vehicle>
    <vehicle id="-flow-random-route-fae571e2-96af-422d-b6da-5f16c72139e0-1648865307791925618-25-0.2" type="actor-car--5539789264440368717" depart="240.00" departLane="4" departPos="56.14" departSpeed="max" arrivalLane="1" arrivalPos="16.13">
        <route edges="gneE10 gneE11"/>
    </vehicle>
    <vehicle id="-flow-random-route-1245f4ad-4848-4433-806f-985da0c6b7dd-1648865307791925618-11-0.3" type="actor-car--5539789264440368717" depart="360.00" departLane="1" departPos="64.19" departSpeed="max" arrivalLane="2" arrivalPos="10.60">
        <route edges="gneE10 gneE11"/>
    </vehicle>
    <vehicle id="-flow-random-route-15c9756c-800c-4581-bb18-d676059905af-1648865307791925618-1-0.3" type="actor-car--5539789264440368717" depart="360.00" departLane="3" departPos="17.14" departSpeed="max" arrivalLane="2" arrivalPos="83.26">
        <route edges="gneE11 gneE12"/>
    </vehicle>
    <vehicle id="-flow-random-route-25123559-3a10-489d-9fd2-e67f7bba3141-1648865307791925618-20-0.3" type="actor-car--5539789264440368717" depart="360.00" departLane="4" departPos="7.65" departSpeed="max" arrivalLane="0" arrivalPos="68.96">
        <route edges="gneE18 gneE10"/>
    </vehicle>
    <vehicle id="-flow-random-route-49325545-0c6f-4549-8831-efab0f72892b-1648865307791925618-3-0.3" type="actor-car--5539789264440368717" depart="360.00" departLane="3" departPos="4.64" departSpeed="max" arrivalLane="1" arrivalPos="94.28">
        <route edges="gneE13 gneE17"/>
    </vehicle>
    <vehicle id="-flow-random-route-4ad44d73-99d9-4457-9dc9-2b4618cb086c-1648865307791925618-24-0.3" type="actor-car--5539789264440368717" depart="360.00" departLane="4" departPos="41.24" departSpeed="max" arrivalLane="1" arrivalPos="24.07">
        <route edges="gneE17 gneE15"/>
    </vehicle>
    <vehicle id="-flow-random-route-51015e29-ead8-43fa-9ade-54f34132e689-1648865307791925618-10-0.3" type="actor-car--5539789264440368717" depart="360.00" departLane="3" departPos="0.21" departSpeed="max" arrivalLane="3" arrivalPos="5.45">
        <route edges="gneE10 gneE11"/>
    </vehicle>
    <vehicle id="-flow-random-route-54f248cc-dc37-4535-990c-508c5c204161-1648865307791925618-15-0.3" type="actor-car--5539789264440368717" depart="360.00" departLane="4" departPos="8.06" departSpeed="max" arrivalLane="4" arrivalPos="25.73">
        <route edges="gneE13 gneE17"/>
    </vehicle>