<?xml version="1.0" encoding="UTF-8"?>

<!-- generated on Sun Sep 20 09:13:44 2020 by Eclipse SUMO duarouter Version 1.6.0
<configuration xmlns:xsi="http://www.w3.org/2001/XMLSchema-instance" xsi:noNamespaceSchemaLocation="http://sumo.dlr.de/xsd/duarouterConfiguration.xsd">

    <input>
        <net-file value="../dataset_public/roundabout_loop/roundabout_a/map.net.xml"/>
        <route-files value="/tmp/tmp8nzw3wpl/trips.trips.xml"/>
    </input>

    <output>
        <output-file value="../dataset_public/roundabout_loop/roundabout_a/traffic/30_patient_car.rou.xml"/>
        <alternatives-output value="../dataset_public/roundabout_loop/roundabout_a/traffic/30_patient_car.rou.alt.xml"/>
    </output>

    <processing>
        <unsorted-input value="true"/>
        <repair value="true"/>
    </processing>

    <report>
        <error-log value="/tmp/smarts/_duarouter_routing/traffic/30_patient_car.log"/>
        <no-step-log value="true"/>
    </report>

    <random_number>
        <seed value="42"/>
    </random_number>

</configuration>
-->

<routes xmlns:xsi="http://www.w3.org/2001/XMLSchema-instance" xsi:noNamespaceSchemaLocation="http://sumo.dlr.de/xsd/routes_file.xsd">
    <vType id="actor-car--4700829400971470589" minGap="2.50" speedFactor="normc(0.50,0.20,0.20,2.00)" vClass="passenger" impatience="0.50" lcCooperative="0.5" lcImpatience="0" jmDriveAfterYellowTime="1.0" accel="2.6" decel="4.5" sigma="0.5"/>
    <vehicle id="-flow-random-route-015a059a-d7db-483a-890f-74ce42ff416b-232890581560674797-29-0.0" type="actor-car--4700829400971470589" depart="0.00" departLane="0" departPos="61.54" departSpeed="max" arrivalLane="1" arrivalPos="66.39">
        <route edges="-gneE48 -gneE37 -gneE36 edge-north-NW edge-west-WS edge-south-SE edge-east-EN edge-north-NW gneE41 gneE42"/>
    </vehicle>
    <vehicle id="-flow-random-route-0d55a80a-5f19-4d07-8b0c-f6dd1cd3ab09-232890581560674797-13-0.0" type="actor-car--4700829400971470589" depart="0.00" departLane="0" departPos="50.79" departSpeed="max" arrivalLane="0" arrivalPos="47.09">
        <route edges="gneE42 gneE51 -gneE48"/>
    </vehicle>
    <vehicle id="-flow-random-route-14c4356b-2b5e-45fc-a14b-b231a8194f95-232890581560674797-12-0.0" type="actor-car--4700829400971470589" depart="0.00" departLane="0" departPos="8.62" departSpeed="max" arrivalLane="1" arrivalPos="65.00">
        <route edges="gneE41 gneE42 gneE51 -gneE48 -gneE37 -gneE36 edge-north-NW edge-west-WS edge-south-SE edge-east-EN"/>
    </vehicle>
    <vehicle id="-flow-random-route-1de4bb31-8f25-44e8-827a-037134bc2151-232890581560674797-20-0.0" type="actor-car--4700829400971470589" depart="0.00" departLane="0" departPos="40.61" departSpeed="max" arrivalLane="1" arrivalPos="26.83">
        <route edges="edge-east-EN edge-north-NW"/>
    </vehicle>
    <vehicle id="-flow-random-route-232525de-26ff-4f46-adae-6ac4ddbc4a00-232890581560674797-16-0.0" type="actor-car--4700829400971470589" depart="0.00" departLane="1" departPos="12.16" departSpeed="max" arrivalLane="0" arrivalPos="77.64">
        <route edges="gneE51 -gneE48 -gneE37"/>
    </vehicle>
    <vehicle id="-flow-random-route-27b1cfe2-d1a1-48d8-a15e-f8dd5e1b6549-232890581560674797-15-0.0" type="actor-car--4700829400971470589" depart="0.00" departLane="0" departPos="89.20" departSpeed="max" arrivalLane="0" arrivalPos="4.18">
        <route edges="-gneE48 -gneE37 -gneE36"/>
    </vehicle>
    <vehicle id="-flow-random-route-33b9852e-8fc4-47ef-bc13-79bc26483f2f-232890581560674797-19-0.0" type="actor-car--4700829400971470589" depart="0.00" departLane="0" departPos="5.17" departSpeed="max" arrivalLane="1" arrivalPos="18.89">
        <route edges="-gneE36 edge-north-NW gneE41 gneE42 gneE51 -gneE48 -gneE37 -gneE36 edge-north-NW edge-west-WS"/>
    </vehicle>
    <vehicle id="-flow-random-route-46e117a3-2292-4683-85a8-ea8d97ab086c-232890581560674797-23-0.0" type="actor-car--4700829400971470589" depart="0.00" departLane="0" departPos="49.00" departSpeed="max" arrivalLane="0" arrivalPos="37.23">
        <route edges="gneE14 gneE13"/>
    </vehicle>
    <vehicle id="-flow-random-route-4e1824a6-d95c-489a-b604-90379800b3b3-232890581560674797-21-0.0" type="actor-car--4700829400971470589" depart="0.00" departLane="0" departPos="57.03" departSpeed="max" arrivalLane="0" arrivalPos="37.00">
        <route edges="gneE13 edge-south-SE"/>
    </vehicle>
    <vehicle id="-flow-random-route-57e7c7bb-f2d2-463d-b0ba-255036514a7b-232890581560674797-14-0.0" type="actor-car--4700829400971470589" depart="0.00" departLane="1" departPos="59.44" departSpeed="max" arrivalLane="1" arrivalPos="8.71">
        <route edges="edge-north-NW gneE41 gneE42 gneE51 -gneE48 -gneE37 -gneE36 edge-north-NW edge-west-WS edge-south-SE"/>
    </vehicle>
    <vehicle id="-flow-random-route-708a9ee5-64f7-4769-90e0-f820f218c2e4-232890581560674797-6-0.0" type="actor-car--4700829400971470589" depart="0.00" departLane="0" departPos="10.65" departSpeed="max" arrivalLane="1" arrivalPos="6.38">
        <route edges="gneE48 gneE53 gneE14 gneE13 edge-south-SE edge-east-EN"/>
    </vehicle>
    <vehicle id="-flow-random-route-711c2c10-4c52-4729-b758-314e3b20de63-232890581560674797-7-0.0" type="actor-car--4700829400971470589" depart="0.00" departLane="0" departPos="12.69" departSpeed="max" arrivalLane="1" arrivalPos="56.78">
        <route edges="gneE37 gneE48 gneE53 gneE14 gneE13 edge-south-SE edge-east-EN edge-north-NW gneE41 gneE42"/>
    </vehicle>
    <vehicle id="-flow-random-route-71658834-2fae-4395-b211-e7b438ef656f-232890581560674797-26-0.0" type="actor-car--4700829400971470589" depart="0.00" departLane="0" departPos="70.18" departSpeed="max" arrivalLane="0" arrivalPos="17.32">
        <route edges="-gneE48 -gneE37 -gneE36"/>
    </vehicle>
    <vehicle id="-flow-random-route-72b196cd-43bd-4aef-b650-8e6527e87a16-232890581560674797-22-0.0" type="actor-car--4700829400971470589" depart="0.00" departLane="1" departPos="55.00" departSpeed="max" arrivalLane="1" arrivalPos="40.41">
        <route edges="edge-east-EN gneE36 gneE37 gneE48 gneE53 gneE14 gneE13 edge-south-SE edge-east-EN edge-north-NW"/>
    </vehicle>
    <vehicle id="-flow-random-route-7e801219-480e-4bee-a3ad-dd2c2e3ea5ed-232890581560674797-18-0.0" type="actor-car--4700829400971470589" depart="0.00" departLane="0" departPos="6.16" departSpeed="max" arrivalLane="1" arrivalPos="53.83">
        <route edges="edge-south-SE edge-east-EN"/>
    </vehicle>
    <vehicle id="-flow-random-route-824c3ace-2a29-4f6c-9049-af6ed5d5ecfe-232890581560674797-17-0.0" type="actor-car--4700829400971470589" depart="0.00" departLane="1" departPos="34.35" departSpeed="max" arrivalLane="0" arrivalPos="82.43">
        <route edges="gneE14 gneE13 edge-south-SE edge-east-EN edge-north-NW gneE41 gneE42 gneE51 -gneE48 -gneE37"/>
    </vehicle>
    <vehicle id="-flow-random-route-a8f409cf-277b-4805-bf84-c2daebcde684-232890581560674797-10-0.0" type="actor-car--4700829400971470589" depart="0.00" departLane="0" departPos="59.30" departSpeed="max" arrivalLane="0" arrivalPos="45.06">
        <route edges="edge-east-EN gneE36 gneE37 gneE48 gneE53 gneE14 gneE13 edge-south-SE edge-east-EN edge-north-NW"/>
    </vehicle>
    <vehicle id="-flow-random-route-abe41f69-ee60-4a56-9cf9-c694e05c03b3-232890581560674797-3-0.0" type="actor-car--4700829400971470589" depart="0.00" departLane="1" departPos="81.61" departSpeed="max" arrivalLane="0" arrivalPos="26.98">
        <route edges="gneE14 gneE13 edge-south-SE edge-east-EN edge-north-NW gneE41 gneE42 gneE51 -gneE48 -gneE37"/>
    </vehicle>
    <vehicle id="-flow-random-route-ad3b129e-bd20-4ddf-bdee-f95832fc0ea1-232890581560674797-8-0.0" type="actor-car--4700829400971470589" depart="0.00" departLane="0" departPos="32.39" departSpeed="max" arrivalLane="1" arrivalPos="6.29">
        <route edges="-gneE37 -gneE36 edge-north-NW edge-west-WS edge-south-SE edge-east-EN gneE36 gneE37 gneE48 gneE53"/>
    </vehicle>
    <vehicle id="-flow-random-route-b2afc844-4ddc-4942-a43c-80f9c4b78513-232890581560674797-27-0.0" type="actor-car--4700829400971470589" depart="0.00" departLane="0" departPos="80.70" departSpeed="max" arrivalLane="0" arrivalPos="0.18">
        <route edges="-gneE37 -gneE36 edge-north-NW edge-west-WS edge-south-SE edge-east-EN edge-north-NW gneE41 gneE42 gneE51"/>
    </vehicle>
    <vehicle id="-flow-random-route-c7abdce2-7947-49e5-a307-e1834c883252-232890581560674797-4-0.0" type="actor-car--4700829400971470589" depart="0.00" departLane="0" departPos="65.67" departSpeed="max" arrivalLane="0" arrivalPos="53.11">
        <route edges="gneE37 gneE48"/>
    </vehicle>
    <vehicle id="-flow-random-route-cc87c093-e548-44c7-abb4-d48199d59b8c-232890581560674797-0-0.0" type="actor-car--4700829400971470589" depart="0.00" departLane="0" departPos="82.61" departSpeed="max" arrivalLane="0" arrivalPos="74.88">
        <route edges="gneE37 gneE48"/>
    </vehicle>
    <vehicle id="-flow-random-route-cf60d25e-4284-46fb-82a5-5d693b41eca1-232890581560674797-2-0.0" type="actor-car--4700829400971470589" depart="0.00" departLane="0" departPos="16.73" departSpeed="max" arrivalLane="0" arrivalPos="13.09">
        <route edges="-gneE36 edge-north-NW edge-west-WS edge-south-SE edge-east-EN edge-north-NW edge-west-WS edge-south-SE edge-east-EN gneE36"/>
    </vehicle>
    <vehicle id="-flow-random-route-e61417dd-336d-4ccd-a86d-72061b1d5215-232890581560674797-25-0.0" type="actor-car--4700829400971470589" depart="0.00" departLane="1" departPos="53.49" departSpeed="max" arrivalLane="0" arrivalPos="99.01">
        <route edges="gneE14 gneE13 edge-south-SE edge-east-EN edge-north-NW gneE41 gneE42 gneE51 -gneE48 -gneE37"/>
    </vehicle>
    <vehicle id="-flow-random-route-e6af4885-98e6-4660-92e5-1767f6eb1f31-232890581560674797-9-0.0" type="actor-car--4700829400971470589" depart="0.00" departLane="1" departPos="52.92" departSpeed="max" arrivalLane="0" arrivalPos="25.87">
        <route edges="edge-east-EN edge-north-NW edge-west-WS edge-south-SE edge-east-EN gneE36 gneE37 gneE48 gneE53 gneE14"/>
    </vehicle>
    <vehicle id="-flow-random-route-e876a9cb-e56e-440f-bd25-aa1f7fa759ab-232890581560674797-1-0.0" type="actor-car--4700829400971470589" depart="0.00" departLane="0" departPos="14.71" departSpeed="max" arrivalLane="0" arrivalPos="49.42">
        <route edges="-gneE36 edge-north-NW"/>
    </vehicle>
    <vehicle id="-flow-random-route-eee43e43-2a30-4c79-ab4c-989a9937af4b-232890581560674797-24-0.0" type="actor-car--4700829400971470589" depart="0.00" departLane="0" departPos="43.54" departSpeed="max" arrivalLane="1" arrivalPos="4.28">
        <route edges="edge-east-EN edge-north-NW gneE41"/>
    </vehicle>
    <vehicle id="-flow-random-route-f407e1d8-be95-4715-be43-cbc88d757801-232890581560674797-28-0.0" type="actor-car--4700829400971470589" depart="0.00" departLane="0" departPos="40.41" departSpeed="max" arrivalLane="0" arrivalPos="38.44">
        <route edges="gneE13 edge-south-SE"/>
    </vehicle>
    <vehicle id="-flow-random-route-f4fafedd-01de-4c8c-8e14-2d7a3b2c3937-232890581560674797-5-0.0" type="actor-car--4700829400971470589" depart="0.00" departLane="1" departPos="17.76" departSpeed="max" arrivalLane="0" arrivalPos="95.19">
        <route edges="gneE13 edge-south-SE edge-east-EN edge-north-NW edge-west-WS edge-south-SE edge-east-EN gneE36 gneE37 gneE48"/>
    </vehicle>
    <vehicle id="-flow-random-route-fc56af01-1e1d-438c-bf42-9cd805bb53e0-232890581560674797-11-0.0" type="actor-car--4700829400971470589" depart="0.00" departLane="0" departPos="166.20" departSpeed="max" arrivalLane="0" arrivalPos="38.25">
        <route edges="-gneE37 -gneE36 edge-north-NW"/>
    </vehicle>
    <vehicle id="-flow-random-route-015a059a-d7db-483a-890f-74ce42ff416b-232890581560674797-29-0.1" type="actor-car--4700829400971470589" depart="120.00" departLane="0" departPos="61.54" departSpeed="max" arrivalLane="1" arrivalPos="66.39">
        <route edges="-gneE48 -gneE37 -gneE36 edge-north-NW edge-west-WS edge-south-SE edge-east-EN edge-north-NW gneE41 gneE42"/>
    </vehicle>
    <vehicle id="-flow-random-route-0d55a80a-5f19-4d07-8b0c-f6dd1cd3ab09-232890581560674797-13-0.1" type="actor-car--4700829400971470589" depart="120.00" departLane="0" departPos="50.79" departSpeed="max" arrivalLane="0" arrivalPos="47.09">
        <route edges="gneE42 gneE51 -gneE48"/>
    </vehicle>
    <vehicle id="-flow-random-route-14c4356b-2b5e-45fc-a14b-b231a8194f95-232890581560674797-12-0.1" type="actor-car--4700829400971470589" depart="120.00" departLane="0" departPos="8.62" departSpeed="max" arrivalLane="1" arrivalPos="65.00">
        <route edges="gneE41 gneE42 gneE51 -gneE48 -gneE37 -gneE36 edge-north-NW edge-west-WS edge-south-SE edge-east-EN"/>
    </vehicle>
    <vehicle id="-flow-random-route-1de4bb31-8f25-44e8-827a-037134bc2151-232890581560674797-20-0.1" type="actor-car--4700829400971470589" depart="120.00" departLane="0" departPos="40.61" departSpeed="max" arrivalLane="1" arrivalPos="26.83">
        <route edges="edge-east-EN edge-north-NW"/>
    </vehicle>
    <vehicle id="-flow-random-route-232525de-26ff-4f46-adae-6ac4ddbc4a00-232890581560674797-16-0.1" type="actor-car--4700829400971470589" depart="120.00" departLane="1" departPos="12.16" departSpeed="max" arrivalLane="0" arrivalPos="77.64">
        <route edges="gneE51 -gneE48 -gneE37"/>
    </vehicle>
    <vehicle id="-flow-random-route-27b1cfe2-d1a1-48d8-a15e-f8dd5e1b6549-232890581560674797-15-0.1" type="actor-car--4700829400971470589" depart="120.00" departLane="0" departPos="89.20" departSpeed="max" arrivalLane="0" arrivalPos="4.18">
        <route edges="-gneE48 -gneE37 -gneE36"/>
    </vehicle>
    <vehicle id="-flow-random-route-33b9852e-8fc4-47ef-bc13-79bc26483f2f-232890581560674797-19-0.1" type="actor-car--4700829400971470589" depart="120.00" departLane="0" departPos="5.17" departSpeed="max" arrivalLane="1" arrivalPos="18.89">
        <route edges="-gneE36 edge-north-NW gneE41 gneE42 gneE51 -gneE48 -gneE37 -gneE36 edge-north-NW edge-west-WS"/>
    </vehicle>
    <vehicle id="-flow-random-route-46e117a3-2292-4683-85a8-ea8d97ab086c-232890581560674797-23-0.1" type="actor-car--4700829400971470589" depart="120.00" departLane="0" departPos="49.00" departSpeed="max" arrivalLane="0" arrivalPos="37.23">
        <route edges="gneE14 gneE13"/>
    </vehicle>
    <vehicle id="-flow-random-route-4e1824a6-d95c-489a-b604-90379800b3b3-232890581560674797-21-0.1" type="actor-car--4700829400971470589" depart="120.00" departLane="0" departPos="57.03" departSpeed="max" arrivalLane="0" arrivalPos="37.00">
        <route edges="gneE13 edge-south-SE"/>
    </vehicle>
    <vehicle id="-flow-random-route-57e7c7bb-f2d2-463d-b0ba-255036514a7b-232890581560674797-14-0.1" type="actor-car--4700829400971470589" depart="120.00" departLane="1" departPos="59.44" departSpeed="max" arrivalLane="1" arrivalPos="8.71">
        <route edges="edge-north-NW gneE41 gneE42 gneE51 -gneE48 -gneE37 -gneE36 edge-north-NW edge-west-WS edge-south-SE"/>
    </vehicle>
    <vehicle id="-flow-random-route-708a9ee5-64f7-4769-90e0-f820f218c2e4-232890581560674797-6-0.1" type="actor-car--4700829400971470589" depart="120.00" departLane="0" departPos="10.65" departSpeed="max" arrivalLane="1" arrivalPos="6.38">
        <route edges="gneE48 gneE53 gneE14 gneE13 edge-south-SE edge-east-EN"/>
    </vehicle>
    <vehicle id="-flow-random-route-711c2c10-4c52-4729-b758-314e3b20de63-232890581560674797-7-0.1" type="actor-car--4700829400971470589" depart="120.00" departLane="0" departPos="12.69" departSpeed="max" arrivalLane="1" arrivalPos="56.78">
        <route edges="gneE37 gneE48 gneE53 gneE14 gneE13 edge-south-SE edge-east-EN edge-north-NW gneE41 gneE42"/>
    </vehicle>
    <vehicle id="-flow-random-route-71658834-2fae-4395-b211-e7b438ef656f-232890581560674797-26-0.1" type="actor-car--4700829400971470589" depart="120.00" departLane="0" departPos="70.18" departSpeed="max" arrivalLane="0" arrivalPos="17.32">
        <route edges="-gneE48 -gneE37 -gneE36"/>
    </vehicle>
    <vehicle id="-flow-random-route-72b196cd-43bd-4aef-b650-8e6527e87a16-232890581560674797-22-0.1" type="actor-car--4700829400971470589" depart="120.00" departLane="1" departPos="55.00" departSpeed="max" arrivalLane="1" arrivalPos="40.41">
        <route edges="edge-east-EN gneE36 gneE37 gneE48 gneE53 gneE14 gneE13 edge-south-SE edge-east-EN edge-north-NW"/>
    </vehicle>
    <vehicle id="-flow-random-route-7e801219-480e-4bee-a3ad-dd2c2e3ea5ed-232890581560674797-18-0.1" type="actor-car--4700829400971470589" depart="120.00" departLane="0" departPos="6.16" departSpeed="max" arrivalLane="1" arrivalPos="53.83">
        <route edges="edge-south-SE edge-east-EN"/>
    </vehicle>
    <vehicle id="-flow-random-route-824c3ace-2a29-4f6c-9049-af6ed5d5ecfe-232890581560674797-17-0.1" type="actor-car--4700829400971470589" depart="120.00" departLane="1" departPos="34.35" departSpeed="max" arrivalLane="0" arrivalPos="82.43">
        <route edges="gneE14 gneE13 edge-south-SE edge-east-EN edge-north-NW gneE41 gneE42 gneE51 -gneE48 -gneE37"/>
    </vehicle>
    <vehicle id="-flow-random-route-a8f409cf-277b-4805-bf84-c2daebcde684-232890581560674797-10-0.1" type="actor-car--4700829400971470589" depart="120.00" departLane="0" departPos="59.30" departSpeed="max" arrivalLane="0" arrivalPos="45.06">
        <route edges="edge-east-EN gneE36 gneE37 gneE48 gneE53 gneE14 gneE13 edge-south-SE edge-east-EN edge-north-NW"/>
    </vehicle>
    <vehicle id="-flow-random-route-abe41f69-ee60-4a56-9cf9-c694e05c03b3-232890581560674797-3-0.1" type="actor-car--4700829400971470589" depart="120.00" departLane="1" departPos="81.61" departSpeed="max" arrivalLane="0" arrivalPos="26.98">
        <route edges="gneE14 gneE13 edge-south-SE edge-east-EN edge-north-NW gneE41 gneE42 gneE51 -gneE48 -gneE37"/>
    </vehicle>
    <vehicle id="-flow-random-route-ad3b129e-bd20-4ddf-bdee-f95832fc0ea1-232890581560674797-8-0.1" type="actor-car--4700829400971470589" depart="120.00" departLane="0" departPos="32.39" departSpeed="max" arrivalLane="1" arrivalPos="6.29">
        <route edges="-gneE37 -gneE36 edge-north-NW edge-west-WS edge-south-SE edge-east-EN gneE36 gneE37 gneE48 gneE53"/>
    </vehicle>
    <vehicle id="-flow-random-route-b2afc844-4ddc-4942-a43c-80f9c4b78513-232890581560674797-27-0.1" type="actor-car--4700829400971470589" depart="120.00" departLane="0" departPos="80.70" departSpeed="max" arrivalLane="0" arrivalPos="0.18">
        <route edges="-gneE37 -gneE36 edge-north-NW edge-west-WS edge-south-SE edge-east-EN edge-north-NW gneE41 gneE42 gneE51"/>
    </vehicle>
    <vehicle id="-flow-random-route-c7abdce2-7947-49e5-a307-e1834c883252-232890581560674797-4-0.1" type="actor-car--4700829400971470589" depart="120.00" departLane="0" departPos="65.67" departSpeed="max" arrivalLane="0" arrivalPos="53.11">
        <route edges="gneE37 gneE48"/>
    </vehicle>
    <vehicle id="-flow-random-route-cc87c093-e548-44c7-abb4-d48199d59b8c-232890581560674797-0-0.1" type="actor-car--4700829400971470589" depart="120.00" departLane="0" departPos="82.61" departSpeed="max" arrivalLane="0" arrivalPos="74.88">
        <route edges="gneE37 gneE48"/>
    </vehicle>
    <vehicle id="-flow-random-route-cf60d25e-4284-46fb-82a5-5d693b41eca1-232890581560674797-2-0.1" type="actor-car--4700829400971470589" depart="120.00" departLane="0" departPos="16.73" departSpeed="max" arrivalLane="0" arrivalPos="13.09">
        <route edges="-gneE36 edge-north-NW edge-west-WS edge-south-SE edge-east-EN edge-north-NW edge-west-WS edge-south-SE edge-east-EN gneE36"/>
    </vehicle>
    <vehicle id="-flow-random-route-e61417dd-336d-4ccd-a86d-72061b1d5215-232890581560674797-25-0.1" type="actor-car--4700829400971470589" depart="120.00" departLane="1" departPos="53.49" departSpeed="max" arrivalLane="0" arrivalPos="99.01">
        <route edges="gneE14 gneE13 edge-south-SE edge-east-EN edge-north-NW gneE41 gneE42 gneE51 -gneE48 -gneE37"/>
    </vehicle>
    <vehicle id="-flow-random-route-e6af4885-98e6-4660-92e5-1767f6eb1f31-232890581560674797-9-0.1" type="actor-car--4700829400971470589" depart="120.00" departLane="1" departPos="52.92" departSpeed="max" arrivalLane="0" arrivalPos="25.87">
        <route edges="edge-east-EN edge-north-NW edge-west-WS edge-south-SE edge-east-EN gneE36 gneE37 gneE48 gneE53 gneE14"/>
    </vehicle>
    <vehicle id="-flow-random-route-e876a9cb-e56e-440f-bd25-aa1f7fa759ab-232890581560674797-1-0.1" type="actor-car--4700829400971470589" depart="120.00" departLane="0" departPos="14.71" departSpeed="max" arrivalLane="0" arrivalPos="49.42">
        <route edges="-gneE36 edge-north-NW"/>
    </vehicle>
    <vehicle id="-flow-random-route-eee43e43-2a30-4c79-ab4c-989a9937af4b-232890581560674797-24-0.1" type="actor-car--4700829400971470589" depart="120.00" departLane="0" departPos="43.54" departSpeed="max" arrivalLane="1" arrivalPos="4.28">
        <route edges="edge-east-EN edge-north-NW gneE41"/>
    </vehicle>
    <vehicle id="-flow-random-route-f407e1d8-be95-4715-be43-cbc88d757801-232890581560674797-28-0.1" type="actor-car--4700829400971470589" depart="120.00" departLane="0" departPos="40.41" departSpeed="max" arrivalLane="0" arrivalPos="38.44">
        <route edges="gneE13 edge-south-SE"/>
    </vehicle>
    <vehicle id="-flow-random-route-f4fafedd-01de-4c8c-8e14-2d7a3b2c3937-232890581560674797-5-0.1" type="actor-car--4700829400971470589" depart="120.00" departLane="1" departPos="17.76" departSpeed="max" arrivalLane="0" arrivalPos="95.19">
        <route edges="gneE13 edge-south-SE edge-east-EN edge-north-NW edge-west-WS edge-south-SE edge-east-EN gneE36 gneE37 gneE48"/>
    </vehicle>
    <vehicle id="-flow-random-route-fc56af01-1e1d-438c-bf42-9cd805bb53e0-232890581560674797-11-0.1" type="actor-car--4700829400971470589" depart="120.00" departLane="0" departPos="166.20" departSpeed="max" arrivalLane="0" arrivalPos="38.25">
        <route edges="-gneE37 -gneE36 edge-north-NW"/>
    </vehicle>
    <vehicle id="-flow-random-route-015a059a-d7db-483a-890f-74ce42ff416b-232890581560674797-29-0.2" type="actor-car--4700829400971470589" depart="240.00" departLane="0" departPos="61.54" departSpeed="max" arrivalLane="1" arrivalPos="66.39">
        <route edges="-gneE48 -gneE37 -gneE36 edge-north-NW edge-west-WS edge-south-SE edge-east-EN edge-north-NW gneE41 gneE42"/>
    </vehicle>
    <vehicle id="-flow-random-route-0d55a80a-5f19-4d07-8b0c-f6dd1cd3ab09-232890581560674797-13-0.2" type="actor-car--4700829400971470589" depart="240.00" departLane="0" departPos="50.79" departSpeed="max" arrivalLane="0" arrivalPos="47.09">
        <route edges="gneE42 gneE51 -gneE48"/>
    </vehicle>
    <vehicle id="-flow-random-route-14c4356b-2b5e-45fc-a14b-b231a8194f95-232890581560674797-12-0.2" type="actor-car--4700829400971470589" depart="240.00" departLane="0" departPos="8.62" departSpeed="max" arrivalLane="1" arrivalPos="65.00">
        <route edges="gneE41 gneE42 gneE51 -gneE48 -gneE37 -gneE36 edge-north-NW edge-west-WS edge-south-SE edge-east-EN"/>
    </vehicle>
    <vehicle id="-flow-random-route-1de4bb31-8f25-44e8-827a-037134bc2151-232890581560674797-20-0.2" type="actor-car--4700829400971470589" depart="240.00" departLane="0" departPos="40.61" departSpeed="max" arrivalLane="1" arrivalPos="26.83">
        <route edges="edge-east-EN edge-north-NW"/>
    </vehicle>
    <vehicle id="-flow-random-route-232525de-26ff-4f46-adae-6ac4ddbc4a00-232890581560674797-16-0.2" type="actor-car--4700829400971470589" depart="240.00" departLane="1" departPos="12.16" departSpeed="max" arrivalLane="0" arrivalPos="77.64">
        <route edges="gneE51 -gneE48 -gneE37"/>
    </vehicle>
    <vehicle id="-flow-random-route-27b1cfe2-d1a1-48d8-a15e-f8dd5e1b6549-232890581560674797-15-0.2" type="actor-car--4700829400971470589" depart="240.00" departLane="0" departPos="89.20" departSpeed="max" arrivalLane="0" arrivalPos="4.18">
        <route edges="-gneE48 -gneE37 -gneE36"/>
    </vehicle>
    <vehicle id="-flow-random-route-33b9852e-8fc4-47ef-bc13-79bc26483f2f-232890581560674797-19-0.2" type="actor-car--4700829400971470589" depart="240.00" departLane="0" departPos="5.17" departSpeed="max" arrivalLane="1" arrivalPos="18.89">
        <route edges="-gneE36 edge-north-NW gneE41 gneE42 gneE51 -gneE48 -gneE37 -gneE36 edge-north-NW edge-west-WS"/>
    </vehicle>
    <vehicle id="-flow-random-route-46e117a3-2292-4683-85a8-ea8d97ab086c-232890581560674797-23-0.2" type="actor-car--4700829400971470589" depart="240.00" departLane="0" departPos="49.00" departSpeed="max" arrivalLane="0" arrivalPos="37.23">
        <route edges="gneE14 gneE13"/>
    </vehicle>
    <vehicle id="-flow-random-route-4e1824a6-d95c-489a-b604-90379800b3b3-232890581560674797-21-0.2" type="actor-car--4700829400971470589" depart="240.00" departLane="0" departPos="57.03" departSpeed="max" arrivalLane="0" arrivalPos="37.00">
        <route edges="gneE13 edge-south-SE"/>
    </vehicle>
    <vehicle id="-flow-random-route-57e7c7bb-f2d2-463d-b0ba-255036514a7b-232890581560674797-14-0.2" type="actor-car--4700829400971470589" depart="240.00" departLane="1" departPos="59.44" departSpeed="max" arrivalLane="1" arrivalPos="8.71">
        <route edges="edge-north-NW gneE41 gneE42 gneE51 -gneE48 -gneE37 -gneE36 edge-north-NW edge-west-WS edge-south-SE"/>
    </vehicle>
    <vehicle id="-flow-random-route-708a9ee5-64f7-4769-90e0-f820f218c2e4-232890581560674797-6-0.2" type="actor-car--4700829400971470589" depart="240.00" departLane="0" departPos="10.65" departSpeed="max" arrivalLane="1" arrivalPos="6.38">
        <route edges="gneE48 gneE53 gneE14 gneE13 edge-south-SE edge-east-EN"/>
    </vehicle>
    <vehicle id="-flow-random-route-711c2c10-4c52-4729-b758-314e3b20de63-232890581560674797-7-0.2" type="actor-car--4700829400971470589" depart="240.00" departLane="0" departPos="12.69" departSpeed="max" arrivalLane="1" arrivalPos="56.78">
        <route edges="gneE37 gneE48 gneE53 gneE14 gneE13 edge-south-SE edge-east-EN edge-north-NW gneE41 gneE42"/>
    </vehicle>
    <vehicle id="-flow-random-route-71658834-2fae-4395-b211-e7b438ef656f-232890581560674797-26-0.2" type="actor-car--4700829400971470589" depart="240.00" departLane="0" departPos="70.18" departSpeed="max" arrivalLane="0" arrivalPos="17.32">
        <route edges="-gneE48 -gneE37 -gneE36"/>
    </vehicle>
    <vehicle id="-flow-random-route-72b196cd-43bd-4aef-b650-8e6527e87a16-232890581560674797-22-0.2" type="actor-car--4700829400971470589" depart="240.00" departLane="1" departPos="55.00" departSpeed="max" arrivalLane="1" arrivalPos="40.41">
        <route edges="edge-east-EN gneE36 gneE37 gneE48 gneE53 gneE14 gneE13 edge-south-SE edge-east-EN edge-north-NW"/>
    </vehicle>
    <vehicle id="-flow-random-route-7e801219-480e-4bee-a3ad-dd2c2e3ea5ed-232890581560674797-18-0.2" type="actor-car--4700829400971470589" depart="240.00" departLane="0" departPos="6.16" departSpeed="max" arrivalLane="1" arrivalPos="53.83">
        <route edges="edge-south-SE edge-east-EN"/>
    </vehicle>
    <vehicle id="-flow-random-route-824c3ace-2a29-4f6c-9049-af6ed5d5ecfe-232890581560674797-17-0.2" type="actor-car--4700829400971470589" depart="240.00" departLane="1" departPos="34.35" departSpeed="max" arrivalLane="0" arrivalPos="82.43">
        <route edges="gneE14 gneE13 edge-south-SE edge-east-EN edge-north-NW gneE41 gneE42 gneE51 -gneE48 -gneE37"/>
    </vehicle>
    <vehicle id="-flow-random-route-a8f409cf-277b-4805-bf84-c2daebcde684-232890581560674797-10-0.2" type="actor-car--4700829400971470589" depart="240.00" departLane="0" departPos="59.30" departSpeed="max" arrivalLane="0" arrivalPos="45.06">
        <route edges="edge-east-EN gneE36 gneE37 gneE48 gneE53 gneE14 gneE13 edge-south-SE edge-east-EN edge-north-NW"/>
    </vehicle>
    <vehicle id="-flow-random-route-abe41f69-ee60-4a56-9cf9-c694e05c03b3-232890581560674797-3-0.2" type="actor-car--4700829400971470589" depart="240.00" departLane="1" departPos="81.61" departSpeed="max" arrivalLane="0" arrivalPos="26.98">
        <route edges="gneE14 gneE13 edge-south-SE edge-east-EN edge-north-NW gneE41 gneE42 gneE51 -gneE48 -gneE37"/>
    </vehicle>
    <vehicle id="-flow-random-route-ad3b129e-bd20-4ddf-bdee-f95832fc0ea1-232890581560674797-8-0.2" type="actor-car--4700829400971470589" depart="240.00" departLane="0" departPos="32.39" departSpeed="max" arrivalLane="1" arrivalPos="6.29">
        <route edges="-gneE37 -gneE36 edge-north-NW edge-west-WS edge-south-SE edge-east-EN gneE36 gneE37 gneE48 gneE53"/>
    </vehicle>
    <vehicle id="-flow-random-route-b2afc844-4ddc-4942-a43c-80f9c4b78513-232890581560674797-27-0.2" type="actor-car--4700829400971470589" depart="240.00" departLane="0" departPos="80.70" departSpeed="max" arrivalLane="0" arrivalPos="0.18">
        <route edges="-gneE37 -gneE36 edge-north-NW edge-west-WS edge-south-SE edge-east-EN edge-north-NW gneE41 gneE42 gneE51"/>
    </vehicle>
    <vehicle id="-flow-random-route-c7abdce2-7947-49e5-a307-e1834c883252-232890581560674797-4-0.2" type="actor-car--4700829400971470589" depart="240.00" departLane="0" departPos="65.67" departSpeed="max" arrivalLane="0" arrivalPos="53.11">
        <route edges="gneE37 gneE48"/>
    </vehicle>
    <vehicle id="-flow-random-route-cc87c093-e548-44c7-abb4-d48199d59b8c-232890581560674797-0-0.2" type="actor-car--4700829400971470589" depart="240.00" departLane="0" departPos="82.61" departSpeed="max" arrivalLane="0" arrivalPos="74.88">
        <route edges="gneE37 gneE48"/>
    </vehicle>
    <vehicle id="-flow-random-route-cf60d25e-4284-46fb-82a5-5d693b41eca1-232890581560674797-2-0.2" type="actor-car--4700829400971470589" depart="240.00" departLane="0" departPos="16.73" departSpeed="max" arrivalLane="0" arrivalPos="13.09">
        <route edges="-gneE36 edge-north-NW edge-west-WS edge-south-SE edge-east-EN edge-north-NW edge-west-WS edge-south-SE edge-east-EN gneE36"/>
    </vehicle>