<?xml version="1.0" encoding="UTF-8"?>

<!-- generated on Sun Sep 20 09:13:45 2020 by Eclipse SUMO duarouter Version 1.6.0
<configuration xmlns:xsi="http://www.w3.org/2001/XMLSchema-instance" xsi:noNamespaceSchemaLocation="http://sumo.dlr.de/xsd/duarouterConfiguration.xsd">

    <input>
        <net-file value="../dataset_public/mixed_loop/roundabout_its_a/map.net.xml"/>
        <route-files value="/tmp/tmpq1vyc1er/trips.trips.xml"/>
    </input>

    <output>
        <output-file value="../dataset_public/mixed_loop/roundabout_its_a/traffic/30_patient_car.rou.xml"/>
        <alternatives-output value="../dataset_public/mixed_loop/roundabout_its_a/traffic/30_patient_car.rou.alt.xml"/>
    </output>

    <processing>
        <unsorted-input value="true"/>
        <repair value="true"/>
    </processing>

    <report>
        <error-log value="/tmp/smarts/_duarouter_routing/traffic/30_patient_car.log"/>
        <no-step-log value="true"/>
    </report>

    <random_number>
        <seed value="42"/>
    </random_number>

</configuration>
-->

<routes xmlns:xsi="http://www.w3.org/2001/XMLSchema-instance" xsi:noNamespaceSchemaLocation="http://sumo.dlr.de/xsd/routes_file.xsd">
    <vType id="actor-car--96340321867386028" minGap="2.50" speedFactor="normc(0.50,0.20,0.20,2.00)" vClass="passenger" impatience="0.50" lcCooperative="0.5" lcImpatience="0" jmDriveAfterYellowTime="1.0" accel="2.6" decel="4.5" sigma="0.5"/>
    <vehicle id="-flow-random-route-0738d622-8979-4fc0-ba2d-2742ffa6a3ab-795718515462399523-2-0.0" type="actor-car--96340321867386028" depart="0.00" departLane="0" departPos="48.36" departSpeed="max" arrivalLane="0" arrivalPos="60.41">
        <route edges="gneE91 gneE92 edge-west-WS gneE96 gneE97 gneE98 -gneE82 -gneE81 edge-east-EN gneE95"/>
    </vehicle>
    <vehicle id="-flow-random-route-0986b97f-0f37-4c30-940a-7db9afbdfd23-795718515462399523-22-0.0" type="actor-car--96340321867386028" depart="0.00" departLane="0" departPos="45.14" departSpeed="max" arrivalLane="0" arrivalPos="41.88">
        <route edges="gneE82 gneE93"/>
    </vehicle>
    <vehicle id="-flow-random-route-0bd7d150-78c8-48cb-a42d-ac095df217b3-795718515462399523-21-0.0" type="actor-car--96340321867386028" depart="0.00" departLane="0" departPos="22.06" departSpeed="max" arrivalLane="0" arrivalPos="23.91">
        <route edges="-gneE82 -gneE81 edge-east-EN gneE95 gneE94 gneE91 gneE92 edge-west-WS edge-south-SE gneE81"/>
    </vehicle>
    <vehicle id="-flow-random-route-0d141194-5dd8-47d0-8278-f8a2b91c7d40-795718515462399523-7-0.0" type="actor-car--96340321867386028" depart="0.00" departLane="0" departPos="12.00" departSpeed="max" arrivalLane="0" arrivalPos="2.18">
        <route edges="-gneE95 edge-north-NW edge-west-WS edge-south-SE gneE81 gneE82 gneE93 -gneE95 edge-north-NW -gneE92"/>
    </vehicle>
    <vehicle id="-flow-random-route-0ff1589c-374c-4bd3-9ac1-240cd517cc84-795718515462399523-28-0.0" type="actor-car--96340321867386028" depart="0.00" departLane="0" departPos="55.30" departSpeed="max" arrivalLane="0" arrivalPos="40.57">
        <route edges="edge-east-EN gneE95 -gneE93 -gneE82 -gneE81 edge-east-EN gneE95 gneE94 gneE91 gneE92"/>
    </vehicle>
    <vehicle id="-flow-random-route-1fcd1378-4c0d-4e7a-a406-f644e449c5af-795718515462399523-10-0.0" type="actor-car--96340321867386028" depart="0.00" departLane="0" departPos="50.01" departSpeed="max" arrivalLane="0" arrivalPos="27.74">
        <route edges="-gneE92 -gneE91 -gneE94 -gneE95 edge-north-NW -gneE92 -gneE91 -gneE94 -gneE93 -gneE82"/>
    </vehicle>
    <vehicle id="-flow-random-route-3768bb24-d14a-4420-a2b9-a41b64ead116-795718515462399523-13-0.0" type="actor-car--96340321867386028" depart="0.00" departLane="0" departPos="40.48" departSpeed="max" arrivalLane="0" arrivalPos="12.69">
        <route edges="gneE91 gneE92 edge-west-WS gneE96 gneE97 gneE98 gneE93 -gneE95 edge-north-NW -gneE92"/>
    </vehicle>
    <vehicle id="-flow-random-route-389288b2-e815-4b0e-a385-56ed4b15dafd-795718515462399523-23-0.0" type="actor-car--96340321867386028" depart="0.00" departLane="0" departPos="71.04" departSpeed="max" arrivalLane="0" arrivalPos="42.44">
        <route edges="gneE98 gneE93 gneE94"/>
    </vehicle>
    <vehicle id="-flow-random-route-49c060ae-3c2c-425f-8e6c-830dabc80ef8-795718515462399523-25-0.0" type="actor-car--96340321867386028" depart="0.00" departLane="0" departPos="53.67" departSpeed="max" arrivalLane="1" arrivalPos="40.32">
        <route edges="-gneE91 -gneE94 -gneE93 -gneE82 -gneE81 edge-east-EN"/>
    </vehicle>
    <vehicle id="-flow-random-route-4fc3b4ce-ef3d-4de1-8b9d-04807b4adb4b-795718515462399523-1-0.0" type="actor-car--96340321867386028" depart="0.00" departLane="0" departPos="95.35" departSpeed="max" arrivalLane="0" arrivalPos="93.70">
        <route edges="-gneE91 -gneE94"/>
    </vehicle>
    <vehicle id="-flow-random-route-537e8396-b7f6-4a1b-b209-9f761b03e962-795718515462399523-24-0.0" type="actor-car--96340321867386028" depart="0.00" departLane="1" departPos="15.43" departSpeed="max" arrivalLane="0" arrivalPos="47.80">
        <route edges="edge-east-EN gneE95 gneE94 gneE91 gneE92 edge-west-WS edge-south-SE edge-east-EN edge-north-NW -gneE92"/>
    </vehicle>
    <vehicle id="-flow-random-route-559a942b-02da-416e-89c1-987756d653a0-795718515462399523-12-0.0" type="actor-car--96340321867386028" depart="0.00" departLane="0" departPos="0.84" departSpeed="max" arrivalLane="0" arrivalPos="13.03">
        <route edges="gneE82 gneE93 -gneE95 edge-north-NW -gneE92"/>
    </vehicle>
    <vehicle id="-flow-random-route-65b23a9c-f635-42d7-ac57-e83f08cd48c1-795718515462399523-29-0.0" type="actor-car--96340321867386028" depart="0.00" departLane="0" departPos="42.41" departSpeed="max" arrivalLane="0" arrivalPos="14.36">
        <route edges="-gneE94 -gneE93 -gneE82 -gneE81 edge-east-EN edge-north-NW -gneE92 -gneE91 -gneE94 -gneE95"/>
    </vehicle>
    <vehicle id="-flow-random-route-66674670-0478-4288-8a2d-7223a00a54f5-795718515462399523-15-0.0" type="actor-car--96340321867386028" depart="0.00" departLane="0" departPos="29.83" departSpeed="max" arrivalLane="0" arrivalPos="117.42">
        <route edges="edge-south-SE gneE81 gneE82 gneE93 gneE94 gneE91 gneE92 edge-west-WS gneE96 gneE97"/>
    </vehicle>
    <vehicle id="-flow-random-route-69d60de1-4b09-4e20-a7ad-b06930834ef6-795718515462399523-8-0.0" type="actor-car--96340321867386028" depart="0.00" departLane="0" departPos="27.93" departSpeed="max" arrivalLane="0" arrivalPos="5.24">
        <route edges="-gneE91 -gneE94"/>
    </vehicle>
    <vehicle id="-flow-random-route-7a8a39b3-15a5-45a1-9a06-bf02cc31aefa-795718515462399523-5-0.0" type="actor-car--96340321867386028" depart="0.00" departLane="0" departPos="25.55" departSpeed="max" arrivalLane="0" arrivalPos="81.07">
        <route edges="-gneE94 -gneE95 edge-north-NW edge-west-WS gneE96 gneE97 gneE98 gneE93 gneE94 gneE91"/>
    </vehicle>
    <vehicle id="-flow-random-route-7f5a067c-ab12-452b-bd1a-2e8521e6dc13-795718515462399523-4-0.0" type="actor-car--96340321867386028" depart="0.00" departLane="0" departPos="107.50" departSpeed="max" arrivalLane="0" arrivalPos="68.96">
        <route edges="gneE96 gneE97"/>
    </vehicle>
    <vehicle id="-flow-random-route-8b4e237d-27de-412c-a491-992b82bdc351-795718515462399523-14-0.0" type="actor-car--96340321867386028" depart="0.00" departLane="0" departPos="82.74" departSpeed="max" arrivalLane="0" arrivalPos="11.84">
        <route edges="gneE98 -gneE82"/>
    </vehicle>
    <vehicle id="-flow-random-route-92a1c01d-1b0b-4f32-99c5-df2580d0bd36-795718515462399523-3-0.0" type="actor-car--96340321867386028" depart="0.00" departLane="0" departPos="22.28" departSpeed="max" arrivalLane="0" arrivalPos="64.11">
        <route edges="gneE82 gneE93 gneE94 gneE91 gneE92 edge-west-WS"/>
    </vehicle>
    <vehicle id="-flow-random-route-932b3cb0-0567-4360-a63e-e4aa5ad8055f-795718515462399523-9-0.0" type="actor-car--96340321867386028" depart="0.00" departLane="1" departPos="12.47" departSpeed="max" arrivalLane="0" arrivalPos="47.16">
        <route edges="edge-east-EN edge-north-NW -gneE92 -gneE91 -gneE94 -gneE93 -gneE82 -gneE81 edge-east-EN gneE95"/>
    </vehicle>
    <vehicle id="-flow-random-route-a26de2f2-7e3a-4731-9bbd-b57aa8ccf872-795718515462399523-26-0.0" type="actor-car--96340321867386028" depart="0.00" departLane="0" departPos="49.50" departSpeed="max" arrivalLane="0" arrivalPos="81.65">
        <route edges="-gneE95 edge-north-NW -gneE92 -gneE91 -gneE94"/>
    </vehicle>
    <vehicle id="-flow-random-route-a6c7a90f-c4e6-4be0-99c7-bcc6ae6e9b42-795718515462399523-6-0.0" type="actor-car--96340321867386028" depart="0.00" departLane="1" departPos="20.84" departSpeed="max" arrivalLane="1" arrivalPos="39.52">
        <route edges="gneE96 gneE97 gneE98"/>
    </vehicle>
    <vehicle id="-flow-random-route-bf1c3644-0111-4015-b400-fc7994293467-795718515462399523-20-0.0" type="actor-car--96340321867386028" depart="0.00" departLane="0" departPos="65.31" departSpeed="max" arrivalLane="0" arrivalPos="33.60">
        <route edges="gneE95 -gneE93 -gneE82 -gneE81 edge-east-EN gneE95 gneE94 gneE91 gneE92 edge-west-WS"/>
    </vehicle>
    <vehicle id="-flow-random-route-c2eaea96-018f-40da-810a-b09d0907d6f5-795718515462399523-11-0.0" type="actor-car--96340321867386028" depart="0.00" departLane="0" departPos="67.74" departSpeed="max" arrivalLane="0" arrivalPos="1.57">
        <route edges="gneE82 gneE93 -gneE95 edge-north-NW edge-west-WS gneE96 gneE97 gneE98 -gneE82 -gneE81"/>
    </vehicle>
    <vehicle id="-flow-random-route-ce7aafcc-0f87-4016-830a-5844f1124743-795718515462399523-27-0.0" type="actor-car--96340321867386028" depart="0.00" departLane="0" departPos="6.90" departSpeed="max" arrivalLane="0" arrivalPos="16.24">
        <route edges="gneE81 gneE82 gneE93 -gneE95 edge-north-NW -gneE92 -gneE91 -gneE94 -gneE93 -gneE82"/>
    </vehicle>
    <vehicle id="-flow-random-route-d0dfa683-c669-47f5-bf43-9b3ee7f6b2eb-795718515462399523-17-0.0" type="actor-car--96340321867386028" depart="0.00" departLane="0" departPos="30.87" departSpeed="max" arrivalLane="0" arrivalPos="48.51">
        <route edges="edge-north-NW -gneE92 -gneE91 -gneE94 -gneE95 edge-north-NW edge-west-WS gneE96 gneE97 gneE98"/>
    </vehicle>
    <vehicle id="-flow-random-route-dd72834e-a70f-4f5c-a4a2-5ef87016f2b4-795718515462399523-19-0.0" type="actor-car--96340321867386028" depart="0.00" departLane="0" departPos="36.38" departSpeed="max" arrivalLane="0" arrivalPos="87.01">
        <route edges="-gneE91 -gneE94"/>
    </vehicle>
    <vehicle id="-flow-random-route-f3f0dd14-85ed-45f4-9786-09d46c3fc15e-795718515462399523-0-0.0" type="actor-car--96340321867386028" depart="0.00" departLane="1" departPos="9.87" departSpeed="max" arrivalLane="0" arrivalPos="70.42">
        <route edges="edge-north-NW edge-west-WS edge-south-SE gneE81 gneE82 gneE93 -gneE95 edge-north-NW -gneE92 -gneE91"/>
    </vehicle>
    <vehicle id="-flow-random-route-f507b525-c4f4-4420-94b1-86cb3fe16fcd-795718515462399523-18-0.0" type="actor-car--96340321867386028" depart="0.00" departLane="0" departPos="88.80" departSpeed="max" arrivalLane="0" arrivalPos="24.10">
        <route edges="gneE97 gneE98 -gneE82 -gneE81 edge-east-EN gneE95 gneE94 gneE91 gneE92 edge-west-WS"/>
    </vehicle>
    <vehicle id="-flow-random-route-f6435cd8-ed4a-4db7-bb31-372ab3cfb0bb-795718515462399523-16-0.0" type="actor-car--96340321867386028" depart="0.00" departLane="0" departPos="70.51" departSpeed="max" arrivalLane="0" arrivalPos="62.82">
        <route edges="-gneE94 -gneE93"/>
    </vehicle>
    <vehicle id="-flow-random-route-0738d622-8979-4fc0-ba2d-2742ffa6a3ab-795718515462399523-2-0.1" type="actor-car--96340321867386028" depart="120.00" departLane="0" departPos="48.36" departSpeed="max" arrivalLane="0" arrivalPos="60.41">
        <route edges="gneE91 gneE92 edge-west-WS gneE96 gneE97 gneE98 -gneE82 -gneE81 edge-east-EN gneE95"/>
    </vehicle>
    <vehicle id="-flow-random-route-0986b97f-0f37-4c30-940a-7db9afbdfd23-795718515462399523-22-0.1" type="actor-car--96340321867386028" depart="120.00" departLane="0" departPos="45.14" departSpeed="max" arrivalLane="0" arrivalPos="41.88">
        <route edges="gneE82 gneE93"/>
    </vehicle>
    <vehicle id="-flow-random-route-0bd7d150-78c8-48cb-a42d-ac095df217b3-795718515462399523-21-0.1" type="actor-car--96340321867386028" depart="120.00" departLane="0" departPos="22.06" departSpeed="max" arrivalLane="0" arrivalPos="23.91">
        <route edges="-gneE82 -gneE81 edge-east-EN gneE95 gneE94 gneE91 gneE92 edge-west-WS edge-south-SE gneE81"/>
    </vehicle>
    <vehicle id="-flow-random-route-0d141194-5dd8-47d0-8278-f8a2b91c7d40-795718515462399523-7-0.1" type="actor-car--96340321867386028" depart="120.00" departLane="0" departPos="12.00" departSpeed="max" arrivalLane="0" arrivalPos="2.18">
        <route edges="-gneE95 edge-north-NW edge-west-WS edge-south-SE gneE81 gneE82 gneE93 -gneE95 edge-north-NW -gneE92"/>
    </vehicle>
    <vehicle id="-flow-random-route-0ff1589c-374c-4bd3-9ac1-240cd517cc84-795718515462399523-28-0.1" type="actor-car--96340321867386028" depart="120.00" departLane="0" departPos="55.30" departSpeed="max" arrivalLane="0" arrivalPos="40.57">
        <route edges="edge-east-EN gneE95 -gneE93 -gneE82 -gneE81 edge-east-EN gneE95 gneE94 gneE91 gneE92"/>
    </vehicle>
    <vehicle id="-flow-random-route-1fcd1378-4c0d-4e7a-a406-f644e449c5af-795718515462399523-10-0.1" type="actor-car--96340321867386028" depart="120.00" departLane="0" departPos="50.01" departSpeed="max" arrivalLane="0" arrivalPos="27.74">
        <route edges="-gneE92 -gneE91 -gneE94 -gneE95 edge-north-NW -gneE92 -gneE91 -gneE94 -gneE93 -gneE82"/>
    </vehicle>
    <vehicle id="-flow-random-route-3768bb24-d14a-4420-a2b9-a41b64ead116-795718515462399523-13-0.1" type="actor-car--96340321867386028" depart="120.00" departLane="0" departPos="40.48" departSpeed="max" arrivalLane="0" arrivalPos="12.69">
        <route edges="gneE91 gneE92 edge-west-WS gneE96 gneE97 gneE98 gneE93 -gneE95 edge-north-NW -gneE92"/>
    </vehicle>
    <vehicle id="-flow-random-route-389288b2-e815-4b0e-a385-56ed4b15dafd-795718515462399523-23-0.1" type="actor-car--96340321867386028" depart="120.00" departLane="0" departPos="71.04" departSpeed="max" arrivalLane="0" arrivalPos="42.44">
        <route edges="gneE98 gneE93 gneE94"/>
    </vehicle>
    <vehicle id="-flow-random-route-49c060ae-3c2c-425f-8e6c-830dabc80ef8-795718515462399523-25-0.1" type="actor-car--96340321867386028" depart="120.00" departLane="0" departPos="53.67" departSpeed="max" arrivalLane="1" arrivalPos="40.32">
        <route edges="-gneE91 -gneE94 -gneE93 -gneE82 -gneE81 edge-east-EN"/>
    </vehicle>
    <vehicle id="-flow-random-route-4fc3b4ce-ef3d-4de1-8b9d-04807b4adb4b-795718515462399523-1-0.1" type="actor-car--96340321867386028" depart="120.00" departLane="0" departPos="95.35" departSpeed="max" arrivalLane="0" arrivalPos="93.70">
        <route edges="-gneE91 -gneE94"/>
    </vehicle>
    <vehicle id="-flow-random-route-537e8396-b7f6-4a1b-b209-9f761b03e962-795718515462399523-24-0.1" type="actor-car--96340321867386028" depart="120.00" departLane="1" departPos="15.43" departSpeed="max" arrivalLane="0" arrivalPos="47.80">
        <route edges="edge-east-EN gneE95 gneE94 gneE91 gneE92 edge-west-WS edge-south-SE edge-east-EN edge-north-NW -gneE92"/>
    </vehicle>
    <vehicle id="-flow-random-route-559a942b-02da-416e-89c1-987756d653a0-795718515462399523-12-0.1" type="actor-car--96340321867386028" depart="120.00" departLane="0" departPos="0.84" departSpeed="max" arrivalLane="0" arrivalPos="13.03">
        <route edges="gneE82 gneE93 -gneE95 edge-north-NW -gneE92"/>
    </vehicle>
    <vehicle id="-flow-random-route-65b23a9c-f635-42d7-ac57-e83f08cd48c1-795718515462399523-29-0.1" type="actor-car--96340321867386028" depart="120.00" departLane="0" departPos="42.41" departSpeed="max" arrivalLane="0" arrivalPos="14.36">
        <route edges="-gneE94 -gneE93 -gneE82 -gneE81 edge-east-EN edge-north-NW -gneE92 -gneE91 -gneE94 -gneE95"/>
    </vehicle>
    <vehicle id="-flow-random-route-66674670-0478-4288-8a2d-7223a00a54f5-795718515462399523-15-0.1" type="actor-car--96340321867386028" depart="120.00" departLane="0" departPos="29.83" departSpeed="max" arrivalLane="0" arrivalPos="117.42">
        <route edges="edge-south-SE gneE81 gneE82 gneE93 gneE94 gneE91 gneE92 edge-west-WS gneE96 gneE97"/>
    </vehicle>
    <vehicle id="-flow-random-route-69d60de1-4b09-4e20-a7ad-b06930834ef6-795718515462399523-8-0.1" type="actor-car--96340321867386028" depart="120.00" departLane="0" departPos="27.93" departSpeed="max" arrivalLane="0" arrivalPos="5.24">
        <route edges="-gneE91 -gneE94"/>
    </vehicle>
    <vehicle id="-flow-random-route-7a8a39b3-15a5-45a1-9a06-bf02cc31aefa-795718515462399523-5-0.1" type="actor-car--96340321867386028" depart="120.00" departLane="0" departPos="25.55" departSpeed="max" arrivalLane="0" arrivalPos="81.07">
        <route edges="-gneE94 -gneE95 edge-north-NW edge-west-WS gneE96 gneE97 gneE98 gneE93 gneE94 gneE91"/>
    </vehicle>
    <vehicle id="-flow-random-route-7f5a067c-ab12-452b-bd1a-2e8521e6dc13-795718515462399523-4-0.1" type="actor-car--96340321867386028" depart="120.00" departLane="0" departPos="107.50" departSpeed="max" arrivalLane="0" arrivalPos="68.96">
        <route edges="gneE96 gneE97"/>
    </vehicle>
    <vehicle id="-flow-random-route-8b4e237d-27de-412c-a491-992b82bdc351-795718515462399523-14-0.1" type="actor-car--96340321867386028" depart="120.00" departLane="0" departPos="82.74" departSpeed="max" arrivalLane="0" arrivalPos="11.84">
        <route edges="gneE98 -gneE82"/>
    </vehicle>
    <vehicle id="-flow-random-route-92a1c01d-1b0b-4f32-99c5-df2580d0bd36-795718515462399523-3-0.1" type="actor-car--96340321867386028" depart="120.00" departLane="0" departPos="22.28" departSpeed="max" arrivalLane="0" arrivalPos="64.11">
        <route edges="gneE82 gneE93 gneE94 gneE91 gneE92 edge-west-WS"/>
    </vehicle>
    <vehicle id="-flow-random-route-932b3cb0-0567-4360-a63e-e4aa5ad8055f-795718515462399523-9-0.1" type="actor-car--96340321867386028" depart="120.00" departLane="1" departPos="12.47" departSpeed="max" arrivalLane="0" arrivalPos="47.16">
        <route edges="edge-east-EN edge-north-NW -gneE92 -gneE91 -gneE94 -gneE93 -gneE82 -gneE81 edge-east-EN gneE95"/>
    </vehicle>
    <vehicle id="-flow-random-route-a26de2f2-7e3a-4731-9bbd-b57aa8ccf872-795718515462399523-26-0.1" type="actor-car--96340321867386028" depart="120.00" departLane="0" departPos="49.50" departSpeed="max" arrivalLane="0" arrivalPos="81.65">
        <route edges="-gneE95 edge-north-NW -gneE92 -gneE91 -gneE94"/>
    </vehicle>
    <vehicle id="-flow-random-route-a6c7a90f-c4e6-4be0-99c7-bcc6ae6e9b42-795718515462399523-6-0.1" type="actor-car--96340321867386028" depart="120.00" departLane="1" departPos="20.84" departSpeed="max" arrivalLane="1" arrivalPos="39.52">
        <route edges="gneE96 gneE97 gneE98"/>
    </vehicle>
    <vehicle id="-flow-random-route-bf1c3644-0111-4015-b400-fc7994293467-795718515462399523-20-0.1" type="actor-car--96340321867386028" depart="120.00" departLane="0" departPos="65.31" departSpeed="max" arrivalLane="0" arrivalPos="33.60">
        <route edges="gneE95 -gneE93 -gneE82 -gneE81 edge-east-EN gneE95 gneE94 gneE91 gneE92 edge-west-WS"/>
    </vehicle>
    <vehicle id="-flow-random-route-c2eaea96-018f-40da-810a-b09d0907d6f5-795718515462399523-11-0.1" type="actor-car--96340321867386028" depart="120.00" departLane="0" departPos="67.74" departSpeed="max" arrivalLane="0" arrivalPos="1.57">
        <route edges="gneE82 gneE93 -gneE95 edge-north-NW edge-west-WS gneE96 gneE97 gneE98 -gneE82 -gneE81"/>
    </vehicle>
    <vehicle id="-flow-random-route-ce7aafcc-0f87-4016-830a-5844f1124743-795718515462399523-27-0.1" type="actor-car--96340321867386028" depart="120.00" departLane="0" departPos="6.90" departSpeed="max" arrivalLane="0" arrivalPos="16.24">
        <route edges="gneE81 gneE82 gneE93 -gneE95 edge-north-NW -gneE92 -gneE91 -gneE94 -gneE93 -gneE82"/>
    </vehicle>
    <vehicle id="-flow-random-route-d0dfa683-c669-47f5-bf43-9b3ee7f6b2eb-795718515462399523-17-0.1" type="actor-car--96340321867386028" depart="120.00" departLane="0" departPos="30.87" departSpeed="max" arrivalLane="0" arrivalPos="48.51">
        <route edges="edge-north-NW -gneE92 -gneE91 -gneE94 -gneE95 edge-north-NW edge-west-WS gneE96 gneE97 gneE98"/>
    </vehicle>
    <vehicle id="-flow-random-route-dd72834e-a70f-4f5c-a4a2-5ef87016f2b4-795718515462399523-19-0.1" type="actor-car--96340321867386028" depart="120.00" departLane="0" departPos="36.38" departSpeed="max" arrivalLane="0" arrivalPos="87.01">
        <route edges="-gneE91 -gneE94"/>
    </vehicle>
    <vehicle id="-flow-random-route-f3f0dd14-85ed-45f4-9786-09d46c3fc15e-795718515462399523-0-0.1" type="actor-car--96340321867386028" depart="120.00" departLane="1" departPos="9.87" departSpeed="max" arrivalLane="0" arrivalPos="70.42">
        <route edges="edge-north-NW edge-west-WS edge-south-SE gneE81 gneE82 gneE93 -gneE95 edge-north-NW -gneE92 -gneE91"/>
    </vehicle>
    <vehicle id="-flow-random-route-f507b525-c4f4-4420-94b1-86cb3fe16fcd-795718515462399523-18-0.1" type="actor-car--96340321867386028" depart="120.00" departLane="0" departPos="88.80" departSpeed="max" arrivalLane="0" arrivalPos="24.10">
        <route edges="gneE97 gneE98 -gneE82 -gneE81 edge-east-EN gneE95 gneE94 gneE91 gneE92 edge-west-WS"/>
    </vehicle>
    <vehicle id="-flow-random-route-f6435cd8-ed4a-4db7-bb31-372ab3cfb0bb-795718515462399523-16-0.1" type="actor-car--96340321867386028" depart="120.00" departLane="0" departPos="70.51" departSpeed="max" arrivalLane="0" arrivalPos="62.82">
        <route edges="-gneE94 -gneE93"/>
    </vehicle>
    <vehicle id="-flow-random-route-0738d622-8979-4fc0-ba2d-2742ffa6a3ab-795718515462399523-2-0.2" type="actor-car--96340321867386028" depart="240.00" departLane="0" departPos="48.36" departSpeed="max" arrivalLane="0" arrivalPos="60.41">
        <route edges="gneE91 gneE92 edge-west-WS gneE96 gneE97 gneE98 -gneE82 -gneE81 edge-east-EN gneE95"/>
    </vehicle>
    <vehicle id="-flow-random-route-0986b97f-0f37-4c30-940a-7db9afbdfd23-795718515462399523-22-0.2" type="actor-car--96340321867386028" depart="240.00" departLane="0" departPos="45.14" departSpeed="max" arrivalLane="0" arrivalPos="41.88">
        <route edges="gneE82 gneE93"/>
    </vehicle>
    <vehicle id="-flow-random-route-0bd7d150-78c8-48cb-a42d-ac095df217b3-795718515462399523-21-0.2" type="actor-car--96340321867386028" depart="240.00" departLane="0" departPos="22.06" departSpeed="max" arrivalLane="0" arrivalPos="23.91">
        <route edges="-gneE82 -gneE81 edge-east-EN gneE95 gneE94 gneE91 gneE92 edge-west-WS edge-south-SE gneE81"/>
    </vehicle>
    <vehicle id="-flow-random-route-0d141194-5dd8-47d0-8278-f8a2b91c7d40-795718515462399523-7-0.2" type="actor-car--96340321867386028" depart="240.00" departLane="0" departPos="12.00" departSpeed="max" arrivalLane="0" arrivalPos="2.18">
        <route edges="-gneE95 edge-north-NW edge-west-WS edge-south-SE gneE81 gneE82 gneE93 -gneE95 edge-north-NW -gneE92"/>
    </vehicle>
    <vehicle id="-flow-random-route-0ff1589c-374c-4bd3-9ac1-240cd517cc84-795718515462399523-28-0.2" type="actor-car--96340321867386028" depart="240.00" departLane="0" departPos="55.30" departSpeed="max" arrivalLane="0" arrivalPos="40.57">
        <route edges="edge-east-EN gneE95 -gneE93 -gneE82 -gneE81 edge-east-EN gneE95 gneE94 gneE91 gneE92"/>
    </vehicle>
    <vehicle id="-flow-random-route-1fcd1378-4c0d-4e7a-a406-f644e449c5af-795718515462399523-10-0.2" type="actor-car--96340321867386028" depart="240.00" departLane="0" departPos="50.01" departSpeed="max" arrivalLane="0" arrivalPos="27.74">
        <route edges="-gneE92 -gneE91 -gneE94 -gneE95 edge-north-NW -gneE92 -gneE91 -gneE94 -gneE93 -gneE82"/>
    </vehicle>
    <vehicle id="-flow-random-route-3768bb24-d14a-4420-a2b9-a41b64ead116-795718515462399523-13-0.2" type="actor-car--96340321867386028" depart="240.00" departLane="0" departPos="40.48" departSpeed="max" arrivalLane="0" arrivalPos="12.69">
        <route edges="gneE91 gneE92 edge-west-WS gneE96 gneE97 gneE98 gneE93 -gneE95 edge-north-NW -gneE92"/>
    </vehicle>
    <vehicle id="-flow-random-route-389288b2-e815-4b0e-a385-56ed4b15dafd-795718515462399523-23-0.2" type="actor-car--96340321867386028" depart="240.00" departLane="0" departPos="71.04" departSpeed="max" arrivalLane="0" arrivalPos="42.44">
        <route edges="gneE98 gneE93 gneE94"/>
    </vehicle>
    <vehicle id="-flow-random-route-49c060ae-3c2c-425f-8e6c-830dabc80ef8-795718515462399523-25-0.2" type="actor-car--96340321867386028" depart="240.00" departLane="0" departPos="53.67" departSpeed="max" arrivalLane="1" arrivalPos="40.32">
        <route edges="-gneE91 -gneE94 -gneE93 -gneE82 -gneE81 edge-east-EN"/>
    </vehicle>
    <vehicle id="-flow-random-route-4fc3b4ce-ef3d-4de1-8b9d-04807b4adb4b-795718515462399523-1-0.2" type="actor-car--96340321867386028" depart="240.00" departLane="0" departPos="95.35" departSpeed="max" arrivalLane="0" arrivalPos="93.70">
        <route edges="-gneE91 -gneE94"/>
    </vehicle>
    <vehicle id="-flow-random-route-537e8396-b7f6-4a1b-b209-9f761b03e962-795718515462399523-24-0.2" type="actor-car--96340321867386028" depart="240.00" departLane="1" departPos="15.43" departSpeed="max" arrivalLane="0" arrivalPos="47.80">
        <route edges="edge-east-EN gneE95 gneE94 gneE91 gneE92 edge-west-WS edge-south-SE edge-east-EN edge-north-NW -gneE92"/>
    </vehicle>
    <vehicle id="-flow-random-route-559a942b-02da-416e-89c1-987756d653a0-795718515462399523-12-0.2" type="actor-car--96340321867386028" depart="240.00" departLane="0" departPos="0.84" departSpeed="max" arrivalLane="0" arrivalPos="13.03">
        <route edges="gneE82 gneE93 -gneE95 edge-north-NW -gneE92"/>
    </vehicle>
    <vehicle id="-flow-random-route-65b23a9c-f635-42d7-ac57-e83f08cd48c1-795718515462399523-29-0.2" type="actor-car--96340321867386028" depart="240.00" departLane="0" departPos="42.41" departSpeed="max" arrivalLane="0" arrivalPos="14.36">
        <route edges="-gneE94 -gneE93 -gneE82 -gneE81 edge-east-EN edge-north-NW -gneE92 -gneE91 -gneE94 -gneE95"/>
    </vehicle>
    <vehicle id="-flow-random-route-66674670-0478-4288-8a2d-7223a00a54f5-795718515462399523-15-0.2" type="actor-car--96340321867386028" depart="240.00" departLane="0" departPos="29.83" departSpeed="max" arrivalLane="0" arrivalPos="117.42">
        <route edges="edge-south-SE gneE81 gneE82 gneE93 gneE94 gneE91 gneE92 edge-west-WS gneE96 gneE97"/>
    </vehicle>
    <vehicle id="-flow-random-route-69d60de1-4b09-4e20-a7ad-b06930834ef6-795718515462399523-8-0.2" type="actor-car--96340321867386028" depart="240.00" departLane="0" departPos="27.93" departSpeed="max" arrivalLane="0" arrivalPos="5.24">
        <route edges="-gneE91 -gneE94"/>
    </vehicle>
    <vehicle id="-flow-random-route-7a8a39b3-15a5-45a1-9a06-bf02cc31aefa-795718515462399523-5-0.2" type="actor-car--96340321867386028" depart="240.00" departLane="0" departPos="25.55" departSpeed="max" arrivalLane="0" arrivalPos="81.07">
        <route edges="-gneE94 -gneE95 edge-north-NW edge-west-WS gneE96 gneE97 gneE98 gneE93 gneE94 gneE91"/>
    </vehicle>
    <vehicle id="-flow-random-route-7f5a067c-ab12-452b-bd1a-2e8521e6dc13-795718515462399523-4-0.2" type="actor-car--96340321867386028" depart="240.00" departLane="0" departPos="107.50" departSpeed="max" arrivalLane="0" arrivalPos="68.96">
        <route edges="gneE96 gneE97"/>
    </vehicle>
    <vehicle id="-flow-random-route-8b4e237d-27de-412c-a491-992b82bdc351-795718515462399523-14-0.2" type="actor-car--96340321867386028" depart="240.00" departLane="0" departPos="82.74" departSpeed="max" arrivalLane="0" arrivalPos="11.84">
        <route edges="gneE98 -gneE82"/>
    </vehicle>
    <vehicle id="-flow-random-route-92a1c01d-1b0b-4f32-99c5-df2580d0bd36-795718515462399523-3-0.2" type="actor-car--96340321867386028" depart="240.00" departLane="0" departPos="22.28" departSpeed="max" arrivalLane="0" arrivalPos="64.11">
        <route edges="gneE82 gneE93 gneE94 gneE91 gneE92 edge-west-WS"/>
    </vehicle>
    <vehicle id="-flow-random-route-932b3cb0-0567-4360-a63e-e4aa5ad8055f-795718515462399523-9-0.2" type="actor-car--96340321867386028" depart="240.00" departLane="1" departPos="12.47" departSpeed="max" arrivalLane="0" arrivalPos="47.16">
        <route edges="edge-east-EN edge-north-NW -gneE92 -gneE91 -gneE94 -gneE93 -gneE82 -gneE81 edge-east-EN gneE95"/>
    </vehicle>
    <vehicle id="-flow-random-route-a26de2f2-7e3a-4731-9bbd-b57aa8ccf872-795718515462399523-26-0.2" type="actor-car--96340321867386028" depart="240.00" departLane="0" departPos="49.50" departSpeed="max" arrivalLane="0" arrivalPos="81.65">
        <route edges="-gneE95 edge-north-NW -gneE92 -gneE91 -gneE94"/>
    </vehicle>
    <vehicle id="-flow-random-route-a6c7a90f-c4e6-4be0-99c7-bcc6ae6e9b42-795718515462399523-6-0.2" type="actor-car--96340321867386028" depart="240.00" departLane="1" departPos="20.84" departSpeed="max" arrivalLane="1" arrivalPos="39.52">
        <route edges="gneE96 gneE97 gneE98"/>
    </vehicle>
    <vehicle id="-flow-random-route-bf1c3644-0111-4015-b400-fc7994293467-795718515462399523-20-0.2" type="actor-car--96340321867386028" depart="240.00" departLane="0" departPos="65.31" departSpeed="max" arrivalLane="0" arrivalPos="33.60">
        <route edges="gneE95 -gneE93 -gneE82 -gneE81 edge-east-EN gneE95 gneE94 gneE91 gneE92 edge-west-WS"/>
    </vehicle>
    <vehicle id="-flow-random-route-c2eaea96-018f-40da-810a-b09d0907d6f5-795718515462399523-11-0.2" type="actor-car--96340321867386028" depart="240.00" departLane="0" departPos="67.74" departSpeed="max" arrivalLane="0" arrivalPos="1.57">
        <route edges="gneE82 gneE93 -gneE95 edge-north-NW edge-west-WS gneE96 gneE97 gneE98 -gneE82 -gneE81"/>
    </vehicle>