<?xml version="1.0" encoding="UTF-8"?>

<!-- generated on Wed Sep 16 11:44:45 2020 by Eclipse SUMO duarouter Version 1.6.0
<configuration xmlns:xsi="http://www.w3.org/2001/XMLSchema-instance" xsi:noNamespaceSchemaLocation="http://sumo.dlr.de/xsd/duarouterConfiguration.xsd">

    <input>
        <net-file value="demo1/map.net.xml"/>
        <route-files value="/tmp/tmpewa2cgex/trips.trips.xml"/>
    </input>

    <output>
        <output-file value="demo1/traffic/30_patient_car.rou.xml"/>
        <alternatives-output value="demo1/traffic/30_patient_car.rou.alt.xml"/>
    </output>

    <processing>
        <unsorted-input value="true"/>
        <repair value="true"/>
    </processing>

    <report>
        <error-log value="/tmp/smarts/_duarouter_routing/traffic/30_patient_car.log"/>
        <no-step-log value="true"/>
    </report>

    <random_number>
        <seed value="42"/>
    </random_number>

</configuration>
-->

<routes xmlns:xsi="http://www.w3.org/2001/XMLSchema-instance" xsi:noNamespaceSchemaLocation="http://sumo.dlr.de/xsd/routes_file.xsd">
    <vType id="actor-car--2475958586198249593" minGap="2.50" speedFactor="normc(0.50,0.20,0.20,2.00)" vClass="passenger" impatience="0.50" lcCooperative="0.5" lcImpatience="0" jmDriveAfterYellowTime="1.0" accel="2.6" decel="4.5" sigma="0.5"/>
    <vehicle id="-flow-random-route-0487caed-97cd-4cef-b854-ef61b314fc3e-3868838828395609064-26-0.0" type="actor-car--2475958586198249593" depart="0.00" departLane="0" departPos="104.32" departSpeed="max" arrivalLane="0" arrivalPos="49.71">
        <route edges="gneE14 gneE15"/>
    </vehicle>
    <vehicle id="-flow-random-route-064f0e25-554a-4285-84cf-9884b868aa8c-3868838828395609064-21-0.0" type="actor-car--2475958586198249593" depart="0.00" departLane="0" departPos="173.75" departSpeed="max" arrivalLane="0" arrivalPos="13.54">
        <route edges="gneE14 gneE15"/>
    </vehicle>
    <vehicle id="-flow-random-route-093ee477-4986-4d02-a718-c20b0a29971f-3868838828395609064-4-0.0" type="actor-car--2475958586198249593" depart="0.00" departLane="0" departPos="32.06" departSpeed="max" arrivalLane="0" arrivalPos="106.07">
        <route edges="gneE15 gneE16"/>
    </vehicle>
    <vehicle id="-flow-random-route-0c145d73-4407-40e4-ae4a-4e7a73d63beb-3868838828395609064-19-0.0" type="actor-car--2475958586198249593" depart="0.00" departLane="0" departPos="71.05" departSpeed="max" arrivalLane="0" arrivalPos="55.08">
        <route edges="-gneE15 -gneE14"/>
    </vehicle>
    <vehicle id="-flow-random-route-11ec72b0-9690-4ecd-ac48-f729633795dc-3868838828395609064-28-0.0" type="actor-car--2475958586198249593" depart="0.00" departLane="0" departPos="187.27" departSpeed="max" arrivalLane="0" arrivalPos="10.72">
        <route edges="-gneE16 -gneE15"/>
    </vehicle>
    <vehicle id="-flow-random-route-134d4d2b-5f92-46bf-b312-821f21b58f86-3868838828395609064-10-0.0" type="actor-car--2475958586198249593" depart="0.00" departLane="0" departPos="25.90" departSpeed="max" arrivalLane="0" arrivalPos="190.09">
        <route edges="-gneE17 -gneE16"/>
    </vehicle>
    <vehicle id="-flow-random-route-135b7a0e-cf3f-4afb-9da6-59eecc527b70-3868838828395609064-25-0.0" type="actor-car--2475958586198249593" depart="0.00" departLane="0" departPos="76.58" departSpeed="max" arrivalLane="0" arrivalPos="33.99">
        <route edges="-gneE15 -gneE14"/>
    </vehicle>
    <vehicle id="-flow-random-route-176f471b-abe7-4213-a317-17a490a729d8-3868838828395609064-3-0.0" type="actor-car--2475958586198249593" depart="0.00" departLane="0" departPos="119.56" departSpeed="max" arrivalLane="0" arrivalPos="72.35">
        <route edges="-gneE14 -gneE17"/>
    </vehicle>
    <vehicle id="-flow-random-route-17a68906-01ea-4097-af6d-5ddb2b85b880-3868838828395609064-16-0.0" type="actor-car--2475958586198249593" depart="0.00" departLane="0" departPos="60.63" departSpeed="max" arrivalLane="0" arrivalPos="90.80">
        <route edges="gneE17 gneE14"/>
    </vehicle>
    <vehicle id="-flow-random-route-1c94cc9e-92fd-4036-bf60-826b1719be91-3868838828395609064-18-0.0" type="actor-car--2475958586198249593" depart="0.00" departLane="0" departPos="17.83" departSpeed="max" arrivalLane="0" arrivalPos="72.28">
        <route edges="-gneE16 -gneE15"/>
    </vehicle>
    <vehicle id="-flow-random-route-1cfd91f9-f824-422f-b1be-ac5d80e04d8a-3868838828395609064-12-0.0" type="actor-car--2475958586198249593" depart="0.00" departLane="0" departPos="6.20" departSpeed="max" arrivalLane="0" arrivalPos="129.72">
        <route edges="gneE15 gneE16"/>
    </vehicle>
    <vehicle id="-flow-random-route-2bd16e13-2de1-47fb-81da-aed483eb85ad-3868838828395609064-24-0.0" type="actor-car--2475958586198249593" depart="0.00" departLane="0" departPos="136.01" departSpeed="max" arrivalLane="0" arrivalPos="49.86">
        <route edges="-gneE14 -gneE17"/>
    </vehicle>
    <vehicle id="-flow-random-route-2cce6cb9-a4fd-4071-818f-2b728da62f64-3868838828395609064-29-0.0" type="actor-car--2475958586198249593" depart="0.00" departLane="0" departPos="113.88" departSpeed="max" arrivalLane="0" arrivalPos="49.68">
        <route edges="gneE14 gneE15"/>
    </vehicle>
    <vehicle id="-flow-random-route-3861248e-fe5f-4f13-8dbe-0531bf61bdfc-3868838828395609064-11-0.0" type="actor-car--2475958586198249593" depart="0.00" departLane="0" departPos="42.03" departSpeed="max" arrivalLane="0" arrivalPos="48.89">
        <route edges="-gneE14 -gneE17"/>
    </vehicle>
    <vehicle id="-flow-random-route-4792a585-e299-4a0f-b59a-f4f30b559026-3868838828395609064-7-0.0" type="actor-car--2475958586198249593" depart="0.00" departLane="0" departPos="21.28" departSpeed="max" arrivalLane="0" arrivalPos="9.36">
        <route edges="gneE16 gneE17"/>
    </vehicle>
    <vehicle id="-flow-random-route-4d78efd4-4a5c-4699-8327-82be5bd1d2f6-3868838828395609064-13-0.0" type="actor-car--2475958586198249593" depart="0.00" departLane="0" departPos="116.04" departSpeed="max" arrivalLane="0" arrivalPos="44.15">
        <route edges="gneE16 gneE17"/>
    </vehicle>
    <vehicle id="-flow-random-route-81d095d4-879e-491b-b8b4-8794abff16b4-3868838828395609064-5-0.0" type="actor-car--2475958586198249593" depart="0.00" departLane="0" departPos="54.52" departSpeed="max" arrivalLane="0" arrivalPos="83.83">
        <route edges="-gneE15 -gneE14"/>
    </vehicle>
    <vehicle id="-flow-random-route-9cd032ec-3cef-4ab1-ab1f-b512c648be5c-3868838828395609064-9-0.0" type="actor-car--2475958586198249593" depart="0.00" departLane="0" departPos="58.46" departSpeed="max" arrivalLane="0" arrivalPos="67.76">
        <route edges="-gneE15 -gneE14"/>
    </vehicle>
    <vehicle id="-flow-random-route-9e934b4a-5016-4cb3-a0ed-53477ad06d28-3868838828395609064-27-0.0" type="actor-car--2475958586198249593" depart="0.00" departLane="0" departPos="40.34" departSpeed="max" arrivalLane="0" arrivalPos="149.54">
        <route edges="gneE15 gneE16"/>
    </vehicle>
    <vehicle id="-flow-random-route-a373172d-8f1e-47fc-bffd-7637cd6257ca-3868838828395609064-1-0.0" type="actor-car--2475958586198249593" depart="0.00" departLane="0" departPos="94.38" departSpeed="max" arrivalLane="0" arrivalPos="0.90">
        <route edges="-gneE14 -gneE17"/>
    </vehicle>
    <vehicle id="-flow-random-route-a583407f-da60-4eff-b955-f6d869851f07-3868838828395609064-6-0.0" type="actor-car--2475958586198249593" depart="0.00" departLane="0" departPos="73.84" departSpeed="max" arrivalLane="0" arrivalPos="126.27">
        <route edges="-gneE15 -gneE14"/>
    </vehicle>
    <vehicle id="-flow-random-route-b7d46a30-fc4e-4df2-ad98-b0083c04cdd9-3868838828395609064-23-0.0" type="actor-car--2475958586198249593" depart="0.00" departLane="0" departPos="73.14" departSpeed="max" arrivalLane="0" arrivalPos="41.36">
        <route edges="gneE14 gneE15"/>
    </vehicle>
    <vehicle id="-flow-random-route-c344eb25-3b28-48c3-be12-ffc763b8b385-3868838828395609064-22-0.0" type="actor-car--2475958586198249593" depart="0.00" departLane="0" departPos="58.92" departSpeed="max" arrivalLane="0" arrivalPos="111.19">
        <route edges="-gneE17 -gneE16"/>
    </vehicle>
    <vehicle id="-flow-random-route-c6692465-8fc9-4146-9e97-ba412e5955aa-3868838828395609064-20-0.0" type="actor-car--2475958586198249593" depart="0.00" departLane="0" departPos="79.62" departSpeed="max" arrivalLane="0" arrivalPos="140.80">
        <route edges="-gneE15 -gneE14"/>
    </vehicle>
    <vehicle id="-flow-random-route-c88a038d-a783-4ac5-98b8-a22e48b46c01-3868838828395609064-14-0.0" type="actor-car--2475958586198249593" depart="0.00" departLane="0" departPos="83.15" departSpeed="max" arrivalLane="0" arrivalPos="107.03">
        <route edges="-gneE17 -gneE16"/>
    </vehicle>
    <vehicle id="-flow-random-route-e8dd01cb-3238-4d5a-b9c0-e7f022073fc9-3868838828395609064-2-0.0" type="actor-car--2475958586198249593" depart="0.00" departLane="0" departPos="60.25" departSpeed="max" arrivalLane="0" arrivalPos="140.73">
        <route edges="-gneE15 -gneE14"/>
    </vehicle>
    <vehicle id="-flow-random-route-e9e27a4c-4996-4400-a540-b5a8ca7e5023-3868838828395609064-17-0.0" type="actor-car--2475958586198249593" depart="0.00" departLane="0" departPos="52.84" departSpeed="max" arrivalLane="0" arrivalPos="150.39">
        <route edges="-gneE15 -gneE14"/>
    </vehicle>
    <vehicle id="-flow-random-route-ef9714ae-a090-4172-9590-91c8ec7b43a5-3868838828395609064-0-0.0" type="actor-car--2475958586198249593" depart="0.00" departLane="0" departPos="194.37" departSpeed="max" arrivalLane="0" arrivalPos="56.00">
        <route edges="-gneE14 -gneE17"/>
    </vehicle>
    <vehicle id="-flow-random-route-fa29933a-4ca0-4850-a20a-b5d0de415cef-3868838828395609064-15-0.0" type="actor-car--2475958586198249593" depart="0.00" departLane="0" departPos="37.88" departSpeed="max" arrivalLane="0" arrivalPos="24.16">
        <route edges="-gneE14 -gneE17"/>
    </vehicle>
    <vehicle id="-flow-random-route-fc22fc7b-875d-4743-b715-618332e52140-3868838828395609064-8-0.0" type="actor-car--2475958586198249593" depart="0.00" departLane="0" departPos="58.57" departSpeed="max" arrivalLane="0" arrivalPos="205.09">
        <route edges="gneE15 gneE16"/>
    </vehicle>
    <vehicle id="-flow-random-route-0487caed-97cd-4cef-b854-ef61b314fc3e-3868838828395609064-26-0.1" type="actor-car--2475958586198249593" depart="120.00" departLane="0" departPos="104.32" departSpeed="max" arrivalLane="0" arrivalPos="49.71">
        <route edges="gneE14 gneE15"/>
    </vehicle>
    <vehicle id="-flow-random-route-064f0e25-554a-4285-84cf-9884b868aa8c-3868838828395609064-21-0.1" type="actor-car--2475958586198249593" depart="120.00" departLane="0" departPos="173.75" departSpeed="max" arrivalLane="0" arrivalPos="13.54">
        <route edges="gneE14 gneE15"/>
    </vehicle>
    <vehicle id="-flow-random-route-093ee477-4986-4d02-a718-c20b0a29971f-3868838828395609064-4-0.1" type="actor-car--2475958586198249593" depart="120.00" departLane="0" departPos="32.06" departSpeed="max" arrivalLane="0" arrivalPos="106.07">
        <route edges="gneE15 gneE16"/>
    </vehicle>
    <vehicle id="-flow-random-route-0c145d73-4407-40e4-ae4a-4e7a73d63beb-3868838828395609064-19-0.1" type="actor-car--2475958586198249593" depart="120.00" departLane="0" departPos="71.05" departSpeed="max" arrivalLane="0" arrivalPos="55.08">
        <route edges="-gneE15 -gneE14"/>
    </vehicle>
    <vehicle id="-flow-random-route-11ec72b0-9690-4ecd-ac48-f729633795dc-3868838828395609064-28-0.1" type="actor-car--2475958586198249593" depart="120.00" departLane="0" departPos="187.27" departSpeed="max" arrivalLane="0" arrivalPos="10.72">
        <route edges="-gneE16 -gneE15"/>
    </vehicle>
    <vehicle id="-flow-random-route-134d4d2b-5f92-46bf-b312-821f21b58f86-3868838828395609064-10-0.1" type="actor-car--2475958586198249593" depart="120.00" departLane="0" departPos="25.90" departSpeed="max" arrivalLane="0" arrivalPos="190.09">
        <route edges="-gneE17 -gneE16"/>
    </vehicle>
    <vehicle id="-flow-random-route-135b7a0e-cf3f-4afb-9da6-59eecc527b70-3868838828395609064-25-0.1" type="actor-car--2475958586198249593" depart="120.00" departLane="0" departPos="76.58" departSpeed="max" arrivalLane="0" arrivalPos="33.99">
        <route edges="-gneE15 -gneE14"/>
    </vehicle>
    <vehicle id="-flow-random-route-176f471b-abe7-4213-a317-17a490a729d8-3868838828395609064-3-0.1" type="actor-car--2475958586198249593" depart="120.00" departLane="0" departPos="119.56" departSpeed="max" arrivalLane="0" arrivalPos="72.35">
        <route edges="-gneE14 -gneE17"/>
    </vehicle>
    <vehicle id="-flow-random-route-17a68906-01ea-4097-af6d-5ddb2b85b880-3868838828395609064-16-0.1" type="actor-car--2475958586198249593" depart="120.00" departLane="0" departPos="60.63" departSpeed="max" arrivalLane="0" arrivalPos="90.80">
        <route edges="gneE17 gneE14"/>
    </vehicle>
    <vehicle id="-flow-random-route-1c94cc9e-92fd-4036-bf60-826b1719be91-3868838828395609064-18-0.1" type="actor-car--2475958586198249593" depart="120.00" departLane="0" departPos="17.83" departSpeed="max" arrivalLane="0" arrivalPos="72.28">
        <route edges="-gneE16 -gneE15"/>
    </vehicle>
    <vehicle id="-flow-random-route-1cfd91f9-f824-422f-b1be-ac5d80e04d8a-3868838828395609064-12-0.1" type="actor-car--2475958586198249593" depart="120.00" departLane="0" departPos="6.20" departSpeed="max" arrivalLane="0" arrivalPos="129.72">
        <route edges="gneE15 gneE16"/>
    </vehicle>
    <vehicle id="-flow-random-route-2bd16e13-2de1-47fb-81da-aed483eb85ad-3868838828395609064-24-0.1" type="actor-car--2475958586198249593" depart="120.00" departLane="0" departPos="136.01" departSpeed="max" arrivalLane="0" arrivalPos="49.86">
        <route edges="-gneE14 -gneE17"/>
    </vehicle>
    <vehicle id="-flow-random-route-2cce6cb9-a4fd-4071-818f-2b728da62f64-3868838828395609064-29-0.1" type="actor-car--2475958586198249593" depart="120.00" departLane="0" departPos="113.88" departSpeed="max" arrivalLane="0" arrivalPos="49.68">
        <route edges="gneE14 gneE15"/>
    </vehicle>
    <vehicle id="-flow-random-route-3861248e-fe5f-4f13-8dbe-0531bf61bdfc-3868838828395609064-11-0.1" type="actor-car--2475958586198249593" depart="120.00" departLane="0" departPos="42.03" departSpeed="max" arrivalLane="0" arrivalPos="48.89">
        <route edges="-gneE14 -gneE17"/>
    </vehicle>
    <vehicle id="-flow-random-route-4792a585-e299-4a0f-b59a-f4f30b559026-3868838828395609064-7-0.1" type="actor-car--2475958586198249593" depart="120.00" departLane="0" departPos="21.28" departSpeed="max" arrivalLane="0" arrivalPos="9.36">
        <route edges="gneE16 gneE17"/>
    </vehicle>
    <vehicle id="-flow-random-route-4d78efd4-4a5c-4699-8327-82be5bd1d2f6-3868838828395609064-13-0.1" type="actor-car--2475958586198249593" depart="120.00" departLane="0" departPos="116.04" departSpeed="max" arrivalLane="0" arrivalPos="44.15">
        <route edges="gneE16 gneE17"/>
    </vehicle>
    <vehicle id="-flow-random-route-81d095d4-879e-491b-b8b4-8794abff16b4-3868838828395609064-5-0.1" type="actor-car--2475958586198249593" depart="120.00" departLane="0" departPos="54.52" departSpeed="max" arrivalLane="0" arrivalPos="83.83">
        <route edges="-gneE15 -gneE14"/>
    </vehicle>
    <vehicle id="-flow-random-route-9cd032ec-3cef-4ab1-ab1f-b512c648be5c-3868838828395609064-9-0.1" type="actor-car--2475958586198249593" depart="120.00" departLane="0" departPos="58.46" departSpeed="max" arrivalLane="0" arrivalPos="67.76">
        <route edges="-gneE15 -gneE14"/>
    </vehicle>
    <vehicle id="-flow-random-route-9e934b4a-5016-4cb3-a0ed-53477ad06d28-3868838828395609064-27-0.1" type="actor-car--2475958586198249593" depart="120.00" departLane="0" departPos="40.34" departSpeed="max" arrivalLane="0" arrivalPos="149.54">
        <route edges="gneE15 gneE16"/>
    </vehicle>
    <vehicle id="-flow-random-route-a373172d-8f1e-47fc-bffd-7637cd6257ca-3868838828395609064-1-0.1" type="actor-car--2475958586198249593" depart="120.00" departLane="0" departPos="94.38" departSpeed="max" arrivalLane="0" arrivalPos="0.90">
        <route edges="-gneE14 -gneE17"/>
    </vehicle>
    <vehicle id="-flow-random-route-a583407f-da60-4eff-b955-f6d869851f07-3868838828395609064-6-0.1" type="actor-car--2475958586198249593" depart="120.00" departLane="0" departPos="73.84" departSpeed="max" arrivalLane="0" arrivalPos="126.27">
        <route edges="-gneE15 -gneE14"/>
    </vehicle>
    <vehicle id="-flow-random-route-b7d46a30-fc4e-4df2-ad98-b0083c04cdd9-3868838828395609064-23-0.1" type="actor-car--2475958586198249593" depart="120.00" departLane="0" departPos="73.14" departSpeed="max" arrivalLane="0" arrivalPos="41.36">
        <route edges="gneE14 gneE15"/>
    </vehicle>
    <vehicle id="-flow-random-route-c344eb25-3b28-48c3-be12-ffc763b8b385-3868838828395609064-22-0.1" type="actor-car--2475958586198249593" depart="120.00" departLane="0" departPos="58.92" departSpeed="max" arrivalLane="0" arrivalPos="111.19">
        <route edges="-gneE17 -gneE16"/>
    </vehicle>
    <vehicle id="-flow-random-route-c6692465-8fc9-4146-9e97-ba412e5955aa-3868838828395609064-20-0.1" type="actor-car--2475958586198249593" depart="120.00" departLane="0" departPos="79.62" departSpeed="max" arrivalLane="0" arrivalPos="140.80">
        <route edges="-gneE15 -gneE14"/>
    </vehicle>
    <vehicle id="-flow-random-route-c88a038d-a783-4ac5-98b8-a22e48b46c01-3868838828395609064-14-0.1" type="actor-car--2475958586198249593" depart="120.00" departLane="0" departPos="83.15" departSpeed="max" arrivalLane="0" arrivalPos="107.03">
        <route edges="-gneE17 -gneE16"/>
    </vehicle>
    <vehicle id="-flow-random-route-e8dd01cb-3238-4d5a-b9c0-e7f022073fc9-3868838828395609064-2-0.1" type="actor-car--2475958586198249593" depart="120.00" departLane="0" departPos="60.25" departSpeed="max" arrivalLane="0" arrivalPos="140.73">
        <route edges="-gneE15 -gneE14"/>
    </vehicle>
    <vehicle id="-flow-random-route-e9e27a4c-4996-4400-a540-b5a8ca7e5023-3868838828395609064-17-0.1" type="actor-car--2475958586198249593" depart="120.00" departLane="0" departPos="52.84" departSpeed="max" arrivalLane="0" arrivalPos="150.39">
        <route edges="-gneE15 -gneE14"/>
    </vehicle>
    <vehicle id="-flow-random-route-ef9714ae-a090-4172-9590-91c8ec7b43a5-3868838828395609064-0-0.1" type="actor-car--2475958586198249593" depart="120.00" departLane="0" departPos="194.37" departSpeed="max" arrivalLane="0" arrivalPos="56.00">
        <route edges="-gneE14 -gneE17"/>
    </vehicle>
    <vehicle id="-flow-random-route-fa29933a-4ca0-4850-a20a-b5d0de415cef-3868838828395609064-15-0.1" type="actor-car--2475958586198249593" depart="120.00" departLane="0" departPos="37.88" departSpeed="max" arrivalLane="0" arrivalPos="24.16">
        <route edges="-gneE14 -gneE17"/>
    </vehicle>
    <vehicle id="-flow-random-route-fc22fc7b-875d-4743-b715-618332e52140-3868838828395609064-8-0.1" type="actor-car--2475958586198249593" depart="120.00" departLane="0" departPos="58.57" departSpeed="max" arrivalLane="0" arrivalPos="205.09">
        <route edges="gneE15 gneE16"/>
    </vehicle>
    <vehicle id="-flow-random-route-0487caed-97cd-4cef-b854-ef61b314fc3e-3868838828395609064-26-0.2" type="actor-car--2475958586198249593" depart="240.00" departLane="0" departPos="104.32" departSpeed="max" arrivalLane="0" arrivalPos="49.71">
        <route edges="gneE14 gneE15"/>
    </vehicle>
    <vehicle id="-flow-random-route-064f0e25-554a-4285-84cf-9884b868aa8c-3868838828395609064-21-0.2" type="actor-car--2475958586198249593" depart="240.00" departLane="0" departPos="173.75" departSpeed="max" arrivalLane="0" arrivalPos="13.54">
        <route edges="gneE14 gneE15"/>
    </vehicle>
    <vehicle id="-flow-random-route-093ee477-4986-4d02-a718-c20b0a29971f-3868838828395609064-4-0.2" type="actor-car--2475958586198249593" depart="240.00" departLane="0" departPos="32.06" departSpeed="max" arrivalLane="0" arrivalPos="106.07">
        <route edges="gneE15 gneE16"/>
    </vehicle>
    <vehicle id="-flow-random-route-0c145d73-4407-40e4-ae4a-4e7a73d63beb-3868838828395609064-19-0.2" type="actor-car--2475958586198249593" depart="240.00" departLane="0" departPos="71.05" departSpeed="max" arrivalLane="0" arrivalPos="55.08">
        <route edges="-gneE15 -gneE14"/>
    </vehicle>
    <vehicle id="-flow-random-route-11ec72b0-9690-4ecd-ac48-f729633795dc-3868838828395609064-28-0.2" type="actor-car--2475958586198249593" depart="240.00" departLane="0" departPos="187.27" departSpeed="max" arrivalLane="0" arrivalPos="10.72">
        <route edges="-gneE16 -gneE15"/>
    </vehicle>
    <vehicle id="-flow-random-route-134d4d2b-5f92-46bf-b312-821f21b58f86-3868838828395609064-10-0.2" type="actor-car--2475958586198249593" depart="240.00" departLane="0" departPos="25.90" departSpeed="max" arrivalLane="0" arrivalPos="190.09">
        <route edges="-gneE17 -gneE16"/>
    </vehicle>
    <vehicle id="-flow-random-route-135b7a0e-cf3f-4afb-9da6-59eecc527b70-3868838828395609064-25-0.2" type="actor-car--2475958586198249593" depart="240.00" departLane="0" departPos="76.58" departSpeed="max" arrivalLane="0" arrivalPos="33.99">
        <route edges="-gneE15 -gneE14"/>
    </vehicle>
    <vehicle id="-flow-random-route-176f471b-abe7-4213-a317-17a490a729d8-3868838828395609064-3-0.2" type="actor-car--2475958586198249593" depart="240.00" departLane="0" departPos="119.56" departSpeed="max" arrivalLane="0" arrivalPos="72.35">
        <route edges="-gneE14 -gneE17"/>
    </vehicle>
    <vehicle id="-flow-random-route-17a68906-01ea-4097-af6d-5ddb2b85b880-3868838828395609064-16-0.2" type="actor-car--2475958586198249593" depart="240.00" departLane="0" departPos="60.63" departSpeed="max" arrivalLane="0" arrivalPos="90.80">
        <route edges="gneE17 gneE14"/>
    </vehicle>
    <vehicle id="-flow-random-route-1c94cc9e-92fd-4036-bf60-826b1719be91-3868838828395609064-18-0.2" type="actor-car--2475958586198249593" depart="240.00" departLane="0" departPos="17.83" departSpeed="max" arrivalLane="0" arrivalPos="72.28">
        <route edges="-gneE16 -gneE15"/>
    </vehicle>
    <vehicle id="-flow-random-route-1cfd91f9-f824-422f-b1be-ac5d80e04d8a-3868838828395609064-12-0.2" type="actor-car--2475958586198249593" depart="240.00" departLane="0" departPos="6.20" departSpeed="max" arrivalLane="0" arrivalPos="129.72">
        <route edges="gneE15 gneE16"/>
    </vehicle>
    <vehicle id="-flow-random-route-2bd16e13-2de1-47fb-81da-aed483eb85ad-3868838828395609064-24-0.2" type="actor-car--2475958586198249593" depart="240.00" departLane="0" departPos="136.01" departSpeed="max" arrivalLane="0" arrivalPos="49.86">
        <route edges="-gneE14 -gneE17"/>
    </vehicle>
    <vehicle id="-flow-random-route-2cce6cb9-a4fd-4071-818f-2b728da62f64-3868838828395609064-29-0.2" type="actor-car--2475958586198249593" depart="240.00" departLane="0" departPos="113.88" departSpeed="max" arrivalLane="0" arrivalPos="49.68">
        <route edges="gneE14 gneE15"/>
    </vehicle>
    <vehicle id="-flow-random-route-3861248e-fe5f-4f13-8dbe-0531bf61bdfc-3868838828395609064-11-0.2" type="actor-car--2475958586198249593" depart="240.00" departLane="0" departPos="42.03" departSpeed="max" arrivalLane="0" arrivalPos="48.89">
        <route edges="-gneE14 -gneE17"/>
    </vehicle>
    <vehicle id="-flow-random-route-4792a585-e299-4a0f-b59a-f4f30b559026-3868838828395609064-7-0.2" type="actor-car--2475958586198249593" depart="240.00" departLane="0" departPos="21.28" departSpeed="max" arrivalLane="0" arrivalPos="9.36">
        <route edges="gneE16 gneE17"/>
    </vehicle>
    <vehicle id="-flow-random-route-4d78efd4-4a5c-4699-8327-82be5bd1d2f6-3868838828395609064-13-0.2" type="actor-car--2475958586198249593" depart="240.00" departLane="0" departPos="116.04" departSpeed="max" arrivalLane="0" arrivalPos="44.15">
        <route edges="gneE16 gneE17"/>
    </vehicle>
    <vehicle id="-flow-random-route-81d095d4-879e-491b-b8b4-8794abff16b4-3868838828395609064-5-0.2" type="actor-car--2475958586198249593" depart="240.00" departLane="0" departPos="54.52" departSpeed="max" arrivalLane="0" arrivalPos="83.83">
        <route edges="-gneE15 -gneE14"/>
    </vehicle>
    <vehicle id="-flow-random-route-9cd032ec-3cef-4ab1-ab1f-b512c648be5c-3868838828395609064-9-0.2" type="actor-car--2475958586198249593" depart="240.00" departLane="0" departPos="58.46" departSpeed="max" arrivalLane="0" arrivalPos="67.76">
        <route edges="-gneE15 -gneE14"/>
    </vehicle>
    <vehicle id="-flow-random-route-9e934b4a-5016-4cb3-a0ed-53477ad06d28-3868838828395609064-27-0.2" type="actor-car--2475958586198249593" depart="240.00" departLane="0" departPos="40.34" departSpeed="max" arrivalLane="0" arrivalPos="149.54">
        <route edges="gneE15 gneE16"/>
    </vehicle>
    <vehicle id="-flow-random-route-a373172d-8f1e-47fc-bffd-7637cd6257ca-3868838828395609064-1-0.2" type="actor-car--2475958586198249593" depart="240.00" departLane="0" departPos="94.38" departSpeed="max" arrivalLane="0" arrivalPos="0.90">
        <route edges="-gneE14 -gneE17"/>
    </vehicle>
    <vehicle id="-flow-random-route-a583407f-da60-4eff-b955-f6d869851f07-3868838828395609064-6-0.2" type="actor-car--2475958586198249593" depart="240.00" departLane="0" departPos="73.84" departSpeed="max" arrivalLane="0" arrivalPos="126.27">
        <route edges="-gneE15 -gneE14"/>
    </vehicle>
    <vehicle id="-flow-random-route-b7d46a30-fc4e-4df2-ad98-b0083c04cdd9-3868838828395609064-23-0.2" type="actor-car--2475958586198249593" depart="240.00" departLane="0" departPos="73.14" departSpeed="max" arrivalLane="0" arrivalPos="41.36">
        <route edges="gneE14 gneE15"/>
    </vehicle>
    <vehicle id="-flow-random-route-c344eb25-3b28-48c3-be12-ffc763b8b385-3868838828395609064-22-0.2" type="actor-car--2475958586198249593" depart="240.00" departLane="0" departPos="58.92" departSpeed="max" arrivalLane="0" arrivalPos="111.19">
        <route edges="-gneE17 -gneE16"/>
    </vehicle>
    <vehicle id="-flow-random-route-c6692465-8fc9-4146-9e97-ba412e5955aa-3868838828395609064-20-0.2" type="actor-car--2475958586198249593" depart="240.00" departLane="0" departPos="79.62" departSpeed="max" arrivalLane="0" arrivalPos="140.80">
        <route edges="-gneE15 -gneE14"/>
    </vehicle>
    <vehicle id="-flow-random-route-c88a038d-a783-4ac5-98b8-a22e48b46c01-3868838828395609064-14-0.2" type="actor-car--2475958586198249593" depart="240.00" departLane="0" departPos="83.15" departSpeed="max" arrivalLane="0" arrivalPos="107.03">
        <route edges="-gneE17 -gneE16"/>
    </vehicle>
    <vehicle id="-flow-random-route-e8dd01cb-3238-4d5a-b9c0-e7f022073fc9-3868838828395609064-2-0.2" type="actor-car--2475958586198249593" depart="240.00" departLane="0" departPos="60.25" departSpeed="max" arrivalLane="0" arrivalPos="140.73">
        <route edges="-gneE15 -gneE14"/>
    </vehicle>
    <vehicle id="-flow-random-route-e9e27a4c-4996-4400-a540-b5a8ca7e5023-3868838828395609064-17-0.2" type="actor-car--2475958586198249593" depart="240.00" departLane="0" departPos="52.84" departSpeed="max" arrivalLane="0" arrivalPos="150.39">
        <route edges="-gneE15 -gneE14"/>
    </vehicle>
    <vehicle id="-flow-random-route-ef9714ae-a090-4172-9590-91c8ec7b43a5-3868838828395609064-0-0.2" type="actor-car--2475958586198249593" depart="240.00" departLane="0" departPos="194.37" departSpeed="max" arrivalLane="0" arrivalPos="56.00">
        <route edges="-gneE14 -gneE17"/>
    </vehicle>
    <vehicle id="-flow-random-route-fa29933a-4ca0-4850-a20a-b5d0de415cef-3868838828395609064-15-0.2" type="actor-car--2475958586198249593" depart="240.00" departLane="0" departPos="37.88" departSpeed="max" arrivalLane="0" arrivalPos="24.16">
        <route edges="-gneE14 -gneE17"/>
    </vehicle>
    <vehicle id="-flow-random-route-fc22fc7b-875d-4743-b715-618332e52140-3868838828395609064-8-0.2" type="actor-car--2475958586198249593" depart="240.00" departLane="0" departPos="58.57" departSpeed="max" arrivalLane="0" arrivalPos="205.09">
        <route edges="gneE15 gneE16"/>
    </vehicle>
    <vehicle id="-flow-random-route-0487caed-97cd-4cef-b854-ef61b314fc3e-3868838828395609064-26-0.3" type="actor-car--2475958586198249593" depart="360.00" departLane="0" departPos="104.32" departSpeed="max" arrivalLane="0" arrivalPos="49.71">
        <route edges="gneE14 gneE15"/>
    </vehicle>
    <vehicle id="-flow-random-route-064f0e25-554a-4285-84cf-9884b868aa8c-3868838828395609064-21-0.3" type="actor-car--2475958586198249593" depart="360.00" departLane="0" departPos="173.75" departSpeed="max" arrivalLane="0" arrivalPos="13.54">
        <route edges="gneE14 gneE15"/>
    </vehicle>
    <vehicle id="-flow-random-route-093ee477-4986-4d02-a718-c20b0a29971f-3868838828395609064-4-0.3" type="actor-car--2475958586198249593" depart="360.00" departLane="0" departPos="32.06" departSpeed="max" arrivalLane="0" arrivalPos="106.07">
        <route edges="gneE15 gneE16"/>
    </vehicle>
    <vehicle id="-flow-random-route-0c145d73-4407-40e4-ae4a-4e7a73d63beb-3868838828395609064-19-0.3" type="actor-car--2475958586198249593" depart="360.00" departLane="0" departPos="71.05" departSpeed="max" arrivalLane="0" arrivalPos="55.08">
        <route edges="-gneE15 -gneE14"/>
    </vehicle>
    <vehicle id="-flow-random-route-11ec72b0-9690-4ecd-ac48-f729633795dc-3868838828395609064-28-0.3" type="actor-car--2475958586198249593" depart="360.00" departLane="0" departPos="187.27" departSpeed="max" arrivalLane="0" arrivalPos="10.72">
        <route edges="-gneE16 -gneE15"/>
    </vehicle>
    <vehicle id="-flow-random-route-134d4d2b-5f92-46bf-b312-821f21b58f86-3868838828395609064-10-0.3" type="actor-car--2475958586198249593" depart="360.00" departLane="0" departPos="25.90" departSpeed="max" arrivalLane="0" arrivalPos="190.09">
        <route edges="-gneE17 -gneE16"/>
    </vehicle>