<?xml version="1.0" encoding="UTF-8"?>

<!-- generated on Sun Oct  4 03:09:30 2020 by Eclipse SUMO duarouter Version 1.6.0
<configuration xmlns:xsi="http://www.w3.org/2001/XMLSchema-instance" xsi:noNamespaceSchemaLocation="http://sumo.dlr.de/xsd/duarouterConfiguration.xsd">

    <input>
        <net-file value="/root/workspace/dataset_public/merge_loop/merge_b/map.net.xml"/>
        <route-files value="/tmp/tmpi_9hf38r/trips.trips.xml"/>
    </input>

    <output>
        <output-file value="/root/workspace/dataset_public/merge_loop/merge_b/traffic/26_patient_car_0.5_impatient_car_0.5.rou.xml"/>
        <alternatives-output value="/root/workspace/dataset_public/merge_loop/merge_b/traffic/26_patient_car_0.5_impatient_car_0.5.rou.alt.xml"/>
    </output>

    <processing>
        <unsorted-input value="true"/>
        <repair value="true"/>
    </processing>

    <report>
        <error-log value="/tmp/smarts/_duarouter_routing/traffic/26_patient_car_0.5_impatient_car_0.5.log"/>
        <no-step-log value="true"/>
    </report>

    <random_number>
        <seed value="345"/>
    </random_number>

</configuration>
-->

<routes xmlns:xsi="http://www.w3.org/2001/XMLSchema-instance" xsi:noNamespaceSchemaLocation="http://sumo.dlr.de/xsd/routes_file.xsd">
    <vType id="actor-impatient_car--7194761606298688260" minGap="2.50" speedFactor="normc(0.50,0.20,0.20,2.00)" vClass="passenger" impatience="0.50" lcCooperative="0.5" lcImpatience="0" jmDriveAfterYellowTime="1.0" accel="2.6" decel="4.5" sigma="0.5"/>
    <vehicle id="-flow-random-route-1e31f743-5dfb-4057-9b38-4dd6ad5a1698-1204813422600208784-3-0.0" type="actor-impatient_car--7194761606298688260" depart="0.00" departLane="0" departPos="32.46" departSpeed="max" arrivalLane="0" arrivalPos="106.47">
        <route edges="gneE7.117 gneE10 gneE3 gneE1 gneE1.12 gneE5 gneE7 gneE7.117 gneE7.141 gneE8"/>
    </vehicle>
    <vType id="actor-patient_car-7551535178859421312" minGap="2.50" speedFactor="normc(0.50,0.20,0.20,2.00)" vClass="passenger" impatience="1.00" lcCooperative="0.25" lcImpatience="1" jmDriveAfterYellowTime="1.0" jmDriveAfterRedTime="1.5" accel="2.6" decel="4.5" sigma="0.5"/>
    <vehicle id="-flow-random-route-1e31f743-5dfb-4057-9b38-4dd6ad5a1698-1204813422600208784-3-1.0" type="actor-patient_car-7551535178859421312" depart="0.00" departLane="0" departPos="32.46" departSpeed="max" arrivalLane="0" arrivalPos="106.47">
        <route edges="gneE7.117 gneE10 gneE3 gneE1 gneE1.12 gneE5 gneE7 gneE7.117 gneE7.141 gneE8"/>
    </vehicle>
    <vehicle id="-flow-random-route-1f672193-3428-4555-89b7-427e8356ef10-1204813422600208784-7-0.0" type="actor-impatient_car--7194761606298688260" depart="0.00" departLane="0" departPos="9.18" departSpeed="max" arrivalLane="0" arrivalPos="20.13">
        <route edges="gneE1 gneE1.12 gneE5 gneE7 gneE7.117 gneE7.141 gneE8 gneE9 gneE2 gneE1"/>
    </vehicle>
    <vehicle id="-flow-random-route-1f672193-3428-4555-89b7-427e8356ef10-1204813422600208784-7-1.0" type="actor-patient_car-7551535178859421312" depart="0.00" departLane="0" departPos="9.18" departSpeed="max" arrivalLane="0" arrivalPos="20.13">
        <route edges="gneE1 gneE1.12 gneE5 gneE7 gneE7.117 gneE7.141 gneE8 gneE9 gneE2 gneE1"/>
    </vehicle>
    <vehicle id="-flow-random-route-5c70424c-ec27-4c24-9b5c-13e3176bfe37-1204813422600208784-4-0.0" type="actor-impatient_car--7194761606298688260" depart="0.00" departLane="0" departPos="5.01" departSpeed="max" arrivalLane="0" arrivalPos="63.09">
        <route edges="gneE7.141 gneE8 gneE9"/>
    </vehicle>
    <vehicle id="-flow-random-route-5c70424c-ec27-4c24-9b5c-13e3176bfe37-1204813422600208784-4-1.0" type="actor-patient_car-7551535178859421312" depart="0.00" departLane="0" departPos="5.01" departSpeed="max" arrivalLane="0" arrivalPos="63.09">
        <route edges="gneE7.141 gneE8 gneE9"/>
    </vehicle>
    <vehicle id="-flow-random-route-617b745b-fcd8-4599-9b61-1e0271134299-1204813422600208784-9-0.0" type="actor-impatient_car--7194761606298688260" depart="0.00" departLane="0" departPos="57.91" departSpeed="max" arrivalLane="1" arrivalPos="83.30">
        <route edges="gneE7.141 gneE8 gneE9"/>
    </vehicle>
    <vehicle id="-flow-random-route-617b745b-fcd8-4599-9b61-1e0271134299-1204813422600208784-9-1.0" type="actor-patient_car-7551535178859421312" depart="0.00" departLane="0" departPos="57.91" departSpeed="max" arrivalLane="1" arrivalPos="83.30">
        <route edges="gneE7.141 gneE8 gneE9"/>
    </vehicle>
    <vehicle id="-flow-random-route-6d224b97-497d-4ad7-8d17-954f5c20ffaf-1204813422600208784-10-0.0" type="actor-impatient_car--7194761606298688260" depart="0.00" departLane="1" departPos="5.01" departSpeed="max" arrivalLane="1" arrivalPos="83.87">
        <route edges="gneE1 gneE16 gneE7.117"/>
    </vehicle>
    <vehicle id="-flow-random-route-6d224b97-497d-4ad7-8d17-954f5c20ffaf-1204813422600208784-10-1.0" type="actor-patient_car-7551535178859421312" depart="0.00" departLane="1" departPos="5.01" departSpeed="max" arrivalLane="1" arrivalPos="83.87">
        <route edges="gneE1 gneE16 gneE7.117"/>
    </vehicle>
    <vehicle id="-flow-random-route-748506f6-9f9e-4faf-9291-3807888ee47f-1204813422600208784-12-0.0" type="actor-impatient_car--7194761606298688260" depart="0.00" departLane="0" departPos="66.23" departSpeed="max" arrivalLane="1" arrivalPos="107.50">
        <route edges="gneE7.141 gneE8 gneE9 gneE2 gneE1 gneE1.12 gneE5 gneE7 gneE7.117 gneE10"/>
    </vehicle>
    <vehicle id="-flow-random-route-748506f6-9f9e-4faf-9291-3807888ee47f-1204813422600208784-12-1.0" type="actor-patient_car-7551535178859421312" depart="0.00" departLane="0" departPos="66.23" departSpeed="max" arrivalLane="1" arrivalPos="107.50">
        <route edges="gneE7.141 gneE8 gneE9 gneE2 gneE1 gneE1.12 gneE5 gneE7 gneE7.117 gneE10"/>
    </vehicle>
    <vehicle id="-flow-random-route-7a46e32d-010e-40ad-a286-b4a41579d60c-1204813422600208784-2-0.0" type="actor-impatient_car--7194761606298688260" depart="0.00" departLane="0" departPos="61.92" departSpeed="max" arrivalLane="1" arrivalPos="28.94">
        <route edges="gneE9 gneE2 gneE1"/>
    </vehicle>
    <vehicle id="-flow-random-route-7a46e32d-010e-40ad-a286-b4a41579d60c-1204813422600208784-2-1.0" type="actor-patient_car-7551535178859421312" depart="0.00" departLane="0" departPos="61.92" departSpeed="max" arrivalLane="1" arrivalPos="28.94">
        <route edges="gneE9 gneE2 gneE1"/>
    </vehicle>
    <vehicle id="-flow-random-route-825a61e1-3f59-412d-ad04-88e6d79cacd8-1204813422600208784-0-0.0" type="actor-impatient_car--7194761606298688260" depart="0.00" departLane="0" departPos="27.57" departSpeed="max" arrivalLane="1" arrivalPos="40.87">
        <route edges="gneE5 gneE7 gneE7.117"/>
    </vehicle>
    <vehicle id="-flow-random-route-825a61e1-3f59-412d-ad04-88e6d79cacd8-1204813422600208784-0-1.0" type="actor-patient_car-7551535178859421312" depart="0.00" departLane="0" departPos="27.57" departSpeed="max" arrivalLane="1" arrivalPos="40.87">
        <route edges="gneE5 gneE7 gneE7.117"/>
    </vehicle>
    <vehicle id="-flow-random-route-b67bd6db-985c-4228-8d2b-60d89f4676a6-1204813422600208784-1-0.0" type="actor-impatient_car--7194761606298688260" depart="0.00" departLane="1" departPos="38.89" departSpeed="max" arrivalLane="0" arrivalPos="29.41">
        <route edges="gneE7 gneE7.117 gneE7.141 gneE8 gneE9 gneE2 gneE1 gneE1.12 gneE5 gneE7"/>
    </vehicle>
    <vehicle id="-flow-random-route-b67bd6db-985c-4228-8d2b-60d89f4676a6-1204813422600208784-1-1.0" type="actor-patient_car-7551535178859421312" depart="0.00" departLane="1" departPos="38.89" departSpeed="max" arrivalLane="0" arrivalPos="29.41">
        <route edges="gneE7 gneE7.117 gneE7.141 gneE8 gneE9 gneE2 gneE1 gneE1.12 gneE5 gneE7"/>
    </vehicle>
    <vehicle id="-flow-random-route-c90f6385-18d4-4a2c-ab47-e511f4642093-1204813422600208784-6-0.0" type="actor-impatient_car--7194761606298688260" depart="0.00" departLane="1" departPos="7.90" departSpeed="max" arrivalLane="1" arrivalPos="31.17">
        <route edges="gneE3 gneE1 gneE1.12 gneE5 gneE7 gneE7.117 gneE7.141 gneE8 gneE9 gneE2"/>
    </vehicle>
    <vehicle id="-flow-random-route-c90f6385-18d4-4a2c-ab47-e511f4642093-1204813422600208784-6-1.0" type="actor-patient_car-7551535178859421312" depart="0.00" departLane="1" departPos="7.90" departSpeed="max" arrivalLane="1" arrivalPos="31.17">
        <route edges="gneE3 gneE1 gneE1.12 gneE5 gneE7 gneE7.117 gneE7.141 gneE8 gneE9 gneE2"/>
    </vehicle>
    <vehicle id="-flow-random-route-dd693c8c-6dde-494e-b289-ce0a6bcd455a-1204813422600208784-5-0.0" type="actor-impatient_car--7194761606298688260" depart="0.00" departLane="0" departPos="40.16" departSpeed="max" arrivalLane="1" arrivalPos="32.41">
        <route edges="gneE10 gneE3 gneE1"/>
    </vehicle>
    <vehicle id="-flow-random-route-dd693c8c-6dde-494e-b289-ce0a6bcd455a-1204813422600208784-5-1.0" type="actor-patient_car-7551535178859421312" depart="0.00" departLane="0" departPos="40.16" departSpeed="max" arrivalLane="1" arrivalPos="32.41">
        <route edges="gneE10 gneE3 gneE1"/>
    </vehicle>
    <vehicle id="-flow-random-route-f481b8fa-0bd2-47ac-8895-4beccc8ebae1-1204813422600208784-8-0.0" type="actor-impatient_car--7194761606298688260" depart="0.00" departLane="1" departPos="6.64" departSpeed="max" arrivalLane="0" arrivalPos="70.96">
        <route edges="gneE7 gneE7.117 gneE10"/>
    </vehicle>
    <vehicle id="-flow-random-route-f481b8fa-0bd2-47ac-8895-4beccc8ebae1-1204813422600208784-8-1.0" type="actor-patient_car-7551535178859421312" depart="0.00" departLane="1" departPos="6.64" departSpeed="max" arrivalLane="0" arrivalPos="70.96">
        <route edges="gneE7 gneE7.117 gneE10"/>
    </vehicle>
    <vehicle id="-flow-random-route-fd899496-c754-4190-83ff-5027e66939b4-1204813422600208784-11-0.0" type="actor-impatient_car--7194761606298688260" depart="0.00" departLane="1" departPos="86.50" departSpeed="max" arrivalLane="0" arrivalPos="10.06">
        <route edges="gneE1.12 gneE5 gneE7 gneE7.117 gneE10"/>
    </vehicle>
    <vehicle id="-flow-random-route-fd899496-c754-4190-83ff-5027e66939b4-1204813422600208784-11-1.0" type="actor-patient_car-7551535178859421312" depart="0.00" departLane="1" departPos="86.50" departSpeed="max" arrivalLane="0" arrivalPos="10.06">
        <route edges="gneE1.12 gneE5 gneE7 gneE7.117 gneE10"/>
    </vehicle>
    <vehicle id="-flow-random-route-1e31f743-5dfb-4057-9b38-4dd6ad5a1698-1204813422600208784-3-0.1" type="actor-impatient_car--7194761606298688260" depart="240.00" departLane="0" departPos="32.46" departSpeed="max" arrivalLane="0" arrivalPos="106.47">
        <route edges="gneE7.117 gneE10 gneE3 gneE1 gneE1.12 gneE5 gneE7 gneE7.117 gneE7.141 gneE8"/>
    </vehicle>
    <vehicle id="-flow-random-route-1e31f743-5dfb-4057-9b38-4dd6ad5a1698-1204813422600208784-3-1.1" type="actor-patient_car-7551535178859421312" depart="240.00" departLane="0" departPos="32.46" departSpeed="max" arrivalLane="0" arrivalPos="106.47">
        <route edges="gneE7.117 gneE10 gneE3 gneE1 gneE1.12 gneE5 gneE7 gneE7.117 gneE7.141 gneE8"/>
    </vehicle>
    <vehicle id="-flow-random-route-1f672193-3428-4555-89b7-427e8356ef10-1204813422600208784-7-0.1" type="actor-impatient_car--7194761606298688260" depart="240.00" departLane="0" departPos="9.18" departSpeed="max" arrivalLane="0" arrivalPos="20.13">
        <route edges="gneE1 gneE1.12 gneE5 gneE7 gneE7.117 gneE7.141 gneE8 gneE9 gneE2 gneE1"/>
    </vehicle>
    <vehicle id="-flow-random-route-1f672193-3428-4555-89b7-427e8356ef10-1204813422600208784-7-1.1" type="actor-patient_car-7551535178859421312" depart="240.00" departLane="0" departPos="9.18" departSpeed="max" arrivalLane="0" arrivalPos="20.13">
        <route edges="gneE1 gneE1.12 gneE5 gneE7 gneE7.117 gneE7.141 gneE8 gneE9 gneE2 gneE1"/>
    </vehicle>
    <vehicle id="-flow-random-route-5c70424c-ec27-4c24-9b5c-13e3176bfe37-1204813422600208784-4-0.1" type="actor-impatient_car--7194761606298688260" depart="240.00" departLane="0" departPos="5.01" departSpeed="max" arrivalLane="0" arrivalPos="63.09">
        <route edges="gneE7.141 gneE8 gneE9"/>
    </vehicle>
    <vehicle id="-flow-random-route-5c70424c-ec27-4c24-9b5c-13e3176bfe37-1204813422600208784-4-1.1" type="actor-patient_car-7551535178859421312" depart="240.00" departLane="0" departPos="5.01" departSpeed="max" arrivalLane="0" arrivalPos="63.09">
        <route edges="gneE7.141 gneE8 gneE9"/>
    </vehicle>
    <vehicle id="-flow-random-route-617b745b-fcd8-4599-9b61-1e0271134299-1204813422600208784-9-0.1" type="actor-impatient_car--7194761606298688260" depart="240.00" departLane="0" departPos="57.91" departSpeed="max" arrivalLane="1" arrivalPos="83.30">
        <route edges="gneE7.141 gneE8 gneE9"/>
    </vehicle>
    <vehicle id="-flow-random-route-617b745b-fcd8-4599-9b61-1e0271134299-1204813422600208784-9-1.1" type="actor-patient_car-7551535178859421312" depart="240.00" departLane="0" departPos="57.91" departSpeed="max" arrivalLane="1" arrivalPos="83.30">
        <route edges="gneE7.141 gneE8 gneE9"/>
    </vehicle>
    <vehicle id="-flow-random-route-6d224b97-497d-4ad7-8d17-954f5c20ffaf-1204813422600208784-10-0.1" type="actor-impatient_car--7194761606298688260" depart="240.00" departLane="1" departPos="5.01" departSpeed="max" arrivalLane="1" arrivalPos="83.87">
        <route edges="gneE1 gneE16 gneE7.117"/>
    </vehicle>
    <vehicle id="-flow-random-route-6d224b97-497d-4ad7-8d17-954f5c20ffaf-1204813422600208784-10-1.1" type="actor-patient_car-7551535178859421312" depart="240.00" departLane="1" departPos="5.01" departSpeed="max" arrivalLane="1" arrivalPos="83.87">
        <route edges="gneE1 gneE16 gneE7.117"/>
    </vehicle>
    <vehicle id="-flow-random-route-748506f6-9f9e-4faf-9291-3807888ee47f-1204813422600208784-12-0.1" type="actor-impatient_car--7194761606298688260" depart="240.00" departLane="0" departPos="66.23" departSpeed="max" arrivalLane="1" arrivalPos="107.50">
        <route edges="gneE7.141 gneE8 gneE9 gneE2 gneE1 gneE1.12 gneE5 gneE7 gneE7.117 gneE10"/>
    </vehicle>
    <vehicle id="-flow-random-route-748506f6-9f9e-4faf-9291-3807888ee47f-1204813422600208784-12-1.1" type="actor-patient_car-7551535178859421312" depart="240.00" departLane="0" departPos="66.23" departSpeed="max" arrivalLane="1" arrivalPos="107.50">
        <route edges="gneE7.141 gneE8 gneE9 gneE2 gneE1 gneE1.12 gneE5 gneE7 gneE7.117 gneE10"/>
    </vehicle>
    <vehicle id="-flow-random-route-7a46e32d-010e-40ad-a286-b4a41579d60c-1204813422600208784-2-0.1" type="actor-impatient_car--7194761606298688260" depart="240.00" departLane="0" departPos="61.92" departSpeed="max" arrivalLane="1" arrivalPos="28.94">
        <route edges="gneE9 gneE2 gneE1"/>
    </vehicle>
    <vehicle id="-flow-random-route-7a46e32d-010e-40ad-a286-b4a41579d60c-1204813422600208784-2-1.1" type="actor-patient_car-7551535178859421312" depart="240.00" departLane="0" departPos="61.92" departSpeed="max" arrivalLane="1" arrivalPos="28.94">
        <route edges="gneE9 gneE2 gneE1"/>
    </vehicle>
    <vehicle id="-flow-random-route-825a61e1-3f59-412d-ad04-88e6d79cacd8-1204813422600208784-0-0.1" type="actor-impatient_car--7194761606298688260" depart="240.00" departLane="0" departPos="27.57" departSpeed="max" arrivalLane="1" arrivalPos="40.87">
        <route edges="gneE5 gneE7 gneE7.117"/>
    </vehicle>
    <vehicle id="-flow-random-route-825a61e1-3f59-412d-ad04-88e6d79cacd8-1204813422600208784-0-1.1" type="actor-patient_car-7551535178859421312" depart="240.00" departLane="0" departPos="27.57" departSpeed="max" arrivalLane="1" arrivalPos="40.87">
        <route edges="gneE5 gneE7 gneE7.117"/>
    </vehicle>
    <vehicle id="-flow-random-route-b67bd6db-985c-4228-8d2b-60d89f4676a6-1204813422600208784-1-0.1" type="actor-impatient_car--7194761606298688260" depart="240.00" departLane="1" departPos="38.89" departSpeed="max" arrivalLane="0" arrivalPos="29.41">
        <route edges="gneE7 gneE7.117 gneE7.141 gneE8 gneE9 gneE2 gneE1 gneE1.12 gneE5 gneE7"/>
    </vehicle>
    <vehicle id="-flow-random-route-b67bd6db-985c-4228-8d2b-60d89f4676a6-1204813422600208784-1-1.1" type="actor-patient_car-7551535178859421312" depart="240.00" departLane="1" departPos="38.89" departSpeed="max" arrivalLane="0" arrivalPos="29.41">
        <route edges="gneE7 gneE7.117 gneE7.141 gneE8 gneE9 gneE2 gneE1 gneE1.12 gneE5 gneE7"/>
    </vehicle>
    <vehicle id="-flow-random-route-c90f6385-18d4-4a2c-ab47-e511f4642093-1204813422600208784-6-0.1" type="actor-impatient_car--7194761606298688260" depart="240.00" departLane="1" departPos="7.90" departSpeed="max" arrivalLane="1" arrivalPos="31.17">
        <route edges="gneE3 gneE1 gneE1.12 gneE5 gneE7 gneE7.117 gneE7.141 gneE8 gneE9 gneE2"/>
    </vehicle>
    <vehicle id="-flow-random-route-c90f6385-18d4-4a2c-ab47-e511f4642093-1204813422600208784-6-1.1" type="actor-patient_car-7551535178859421312" depart="240.00" departLane="1" departPos="7.90" departSpeed="max" arrivalLane="1" arrivalPos="31.17">
        <route edges="gneE3 gneE1 gneE1.12 gneE5 gneE7 gneE7.117 gneE7.141 gneE8 gneE9 gneE2"/>
    </vehicle>
    <vehicle id="-flow-random-route-dd693c8c-6dde-494e-b289-ce0a6bcd455a-1204813422600208784-5-0.1" type="actor-impatient_car--7194761606298688260" depart="240.00" departLane="0" departPos="40.16" departSpeed="max" arrivalLane="1" arrivalPos="32.41">
        <route edges="gneE10 gneE3 gneE1"/>
    </vehicle>
    <vehicle id="-flow-random-route-dd693c8c-6dde-494e-b289-ce0a6bcd455a-1204813422600208784-5-1.1" type="actor-patient_car-7551535178859421312" depart="240.00" departLane="0" departPos="40.16" departSpeed="max" arrivalLane="1" arrivalPos="32.41">
        <route edges="gneE10 gneE3 gneE1"/>
    </vehicle>
    <vehicle id="-flow-random-route-f481b8fa-0bd2-47ac-8895-4beccc8ebae1-1204813422600208784-8-0.1" type="actor-impatient_car--7194761606298688260" depart="240.00" departLane="1" departPos="6.64" departSpeed="max" arrivalLane="0" arrivalPos="70.96">
        <route edges="gneE7 gneE7.117 gneE10"/>
    </vehicle>
    <vehicle id="-flow-random-route-f481b8fa-0bd2-47ac-8895-4beccc8ebae1-1204813422600208784-8-1.1" type="actor-patient_car-7551535178859421312" depart="240.00" departLane="1" departPos="6.64" departSpeed="max" arrivalLane="0" arrivalPos="70.96">
        <route edges="gneE7 gneE7.117 gneE10"/>
    </vehicle>
    <vehicle id="-flow-random-route-fd899496-c754-4190-83ff-5027e66939b4-1204813422600208784-11-0.1" type="actor-impatient_car--7194761606298688260" depart="240.00" departLane="1" departPos="86.50" departSpeed="max" arrivalLane="0" arrivalPos="10.06">
        <route edges="gneE1.12 gneE5 gneE7 gneE7.117 gneE10"/>
    </vehicle>
    <vehicle id="-flow-random-route-fd899496-c754-4190-83ff-5027e66939b4-1204813422600208784-11-1.1" type="actor-patient_car-7551535178859421312" depart="240.00" departLane="1" departPos="86.50" departSpeed="max" arrivalLane="0" arrivalPos="10.06">
        <route edges="gneE1.12 gneE5 gneE7 gneE7.117 gneE10"/>
    </vehicle>
    <vehicle id="-flow-random-route-1e31f743-5dfb-4057-9b38-4dd6ad5a1698-1204813422600208784-3-0.2" type="actor-impatient_car--7194761606298688260" depart="480.00" departLane="0" departPos="32.46" departSpeed="max" arrivalLane="0" arrivalPos="106.47">
        <route edges="gneE7.117 gneE10 gneE3 gneE1 gneE1.12 gneE5 gneE7 gneE7.117 gneE7.141 gneE8"/>
    </vehicle>
    <vehicle id="-flow-random-route-1e31f743-5dfb-4057-9b38-4dd6ad5a1698-1204813422600208784-3-1.2" type="actor-patient_car-7551535178859421312" depart="480.00" departLane="0" departPos="32.46" departSpeed="max" arrivalLane="0" arrivalPos="106.47">
        <route edges="gneE7.117 gneE10 gneE3 gneE1 gneE1.12 gneE5 gneE7 gneE7.117 gneE7.141 gneE8"/>
    </vehicle>
    <vehicle id="-flow-random-route-1f672193-3428-4555-89b7-427e8356ef10-1204813422600208784-7-0.2" type="actor-impatient_car--7194761606298688260" depart="480.00" departLane="0" departPos="9.18" departSpeed="max" arrivalLane="0" arrivalPos="20.13">
        <route edges="gneE1 gneE1.12 gneE5 gneE7 gneE7.117 gneE7.141 gneE8 gneE9 gneE2 gneE1"/>
    </vehicle>
    <vehicle id="-flow-random-route-1f672193-3428-4555-89b7-427e8356ef10-1204813422600208784-7-1.2" type="actor-patient_car-7551535178859421312" depart="480.00" departLane="0" departPos="9.18" departSpeed="max" arrivalLane="0" arrivalPos="20.13">
        <route edges="gneE1 gneE1.12 gneE5 gneE7 gneE7.117 gneE7.141 gneE8 gneE9 gneE2 gneE1"/>
    </vehicle>
    <vehicle id="-flow-random-route-5c70424c-ec27-4c24-9b5c-13e3176bfe37-1204813422600208784-4-0.2" type="actor-impatient_car--7194761606298688260" depart="480.00" departLane="0" departPos="5.01" departSpeed="max" arrivalLane="0" arrivalPos="63.09">
        <route edges="gneE7.141 gneE8 gneE9"/>
    </vehicle>
    <vehicle id="-flow-random-route-5c70424c-ec27-4c24-9b5c-13e3176bfe37-1204813422600208784-4-1.2" type="actor-patient_car-7551535178859421312" depart="480.00" departLane="0" departPos="5.01" departSpeed="max" arrivalLane="0" arrivalPos="63.09">
        <route edges="gneE7.141 gneE8 gneE9"/>
    </vehicle>
    <vehicle id="-flow-random-route-617b745b-fcd8-4599-9b61-1e0271134299-1204813422600208784-9-0.2" type="actor-impatient_car--7194761606298688260" depart="480.00" departLane="0" departPos="57.91" departSpeed="max" arrivalLane="1" arrivalPos="83.30">
        <route edges="gneE7.141 gneE8 gneE9"/>
    </vehicle>
    <vehicle id="-flow-random-route-617b745b-fcd8-4599-9b61-1e0271134299-1204813422600208784-9-1.2" type="actor-patient_car-7551535178859421312" depart="480.00" departLane="0" departPos="57.91" departSpeed="max" arrivalLane="1" arrivalPos="83.30">
        <route edges="gneE7.141 gneE8 gneE9"/>
    </vehicle>
    <vehicle id="-flow-random-route-6d224b97-497d-4ad7-8d17-954f5c20ffaf-1204813422600208784-10-0.2" type="actor-impatient_car--7194761606298688260" depart="480.00" departLane="1" departPos="5.01" departSpeed="max" arrivalLane="1" arrivalPos="83.87">
        <route edges="gneE1 gneE16 gneE7.117"/>
    </vehicle>
    <vehicle id="-flow-random-route-6d224b97-497d-4ad7-8d17-954f5c20ffaf-1204813422600208784-10-1.2" type="actor-patient_car-7551535178859421312" depart="480.00" departLane="1" departPos="5.01" departSpeed="max" arrivalLane="1" arrivalPos="83.87">
        <route edges="gneE1 gneE16 gneE7.117"/>
    </vehicle>
    <vehicle id="-flow-random-route-748506f6-9f9e-4faf-9291-3807888ee47f-1204813422600208784-12-0.2" type="actor-impatient_car--7194761606298688260" depart="480.00" departLane="0" departPos="66.23" departSpeed="max" arrivalLane="1" arrivalPos="107.50">
        <route edges="gneE7.141 gneE8 gneE9 gneE2 gneE1 gneE1.12 gneE5 gneE7 gneE7.117 gneE10"/>
    </vehicle>
    <vehicle id="-flow-random-route-748506f6-9f9e-4faf-9291-3807888ee47f-1204813422600208784-12-1.2" type="actor-patient_car-7551535178859421312" depart="480.00" departLane="0" departPos="66.23" departSpeed="max" arrivalLane="1" arrivalPos="107.50">
        <route edges="gneE7.141 gneE8 gneE9 gneE2 gneE1 gneE1.12 gneE5 gneE7 gneE7.117 gneE10"/>
    </vehicle>
    <vehicle id="-flow-random-route-7a46e32d-010e-40ad-a286-b4a41579d60c-1204813422600208784-2-0.2" type="actor-impatient_car--7194761606298688260" depart="480.00" departLane="0" departPos="61.92" departSpeed="max" arrivalLane="1" arrivalPos="28.94">
        <route edges="gneE9 gneE2 gneE1"/>
    </vehicle>
    <vehicle id="-flow-random-route-7a46e32d-010e-40ad-a286-b4a41579d60c-1204813422600208784-2-1.2" type="actor-patient_car-7551535178859421312" depart="480.00" departLane="0" departPos="61.92" departSpeed="max" arrivalLane="1" arrivalPos="28.94">
        <route edges="gneE9 gneE2 gneE1"/>
    </vehicle>
    <vehicle id="-flow-random-route-825a61e1-3f59-412d-ad04-88e6d79cacd8-1204813422600208784-0-0.2" type="actor-impatient_car--7194761606298688260" depart="480.00" departLane="0" departPos="27.57" departSpeed="max" arrivalLane="1" arrivalPos="40.87">
        <route edges="gneE5 gneE7 gneE7.117"/>
    </vehicle>
    <vehicle id="-flow-random-route-825a61e1-3f59-412d-ad04-88e6d79cacd8-1204813422600208784-0-1.2" type="actor-patient_car-7551535178859421312" depart="480.00" departLane="0" departPos="27.57" departSpeed="max" arrivalLane="1" arrivalPos="40.87">
        <route edges="gneE5 gneE7 gneE7.117"/>
    </vehicle>
    <vehicle id="-flow-random-route-b67bd6db-985c-4228-8d2b-60d89f4676a6-1204813422600208784-1-0.2" type="actor-impatient_car--7194761606298688260" depart="480.00" departLane="1" departPos="38.89" departSpeed="max" arrivalLane="0" arrivalPos="29.41">
        <route edges="gneE7 gneE7.117 gneE7.141 gneE8 gneE9 gneE2 gneE1 gneE1.12 gneE5 gneE7"/>
    </vehicle>
    <vehicle id="-flow-random-route-b67bd6db-985c-4228-8d2b-60d89f4676a6-1204813422600208784-1-1.2" type="actor-patient_car-7551535178859421312" depart="480.00" departLane="1" departPos="38.89" departSpeed="max" arrivalLane="0" arrivalPos="29.41">
        <route edges="gneE7 gneE7.117 gneE7.141 gneE8 gneE9 gneE2 gneE1 gneE1.12 gneE5 gneE7"/>
    </vehicle>
    <vehicle id="-flow-random-route-c90f6385-18d4-4a2c-ab47-e511f4642093-1204813422600208784-6-0.2" type="actor-impatient_car--7194761606298688260" depart="480.00" departLane="1" departPos="7.90" departSpeed="max" arrivalLane="1" arrivalPos="31.17">
        <route edges="gneE3 gneE1 gneE1.12 gneE5 gneE7 gneE7.117 gneE7.141 gneE8 gneE9 gneE2"/>
    </vehicle>
    <vehicle id="-flow-random-route-c90f6385-18d4-4a2c-ab47-e511f4642093-1204813422600208784-6-1.2" type="actor-patient_car-7551535178859421312" depart="480.00" departLane="1" departPos="7.90" departSpeed="max" arrivalLane="1" arrivalPos="31.17">
        <route edges="gneE3 gneE1 gneE1.12 gneE5 gneE7 gneE7.117 gneE7.141 gneE8 gneE9 gneE2"/>
    </vehicle>
    <vehicle id="-flow-random-route-dd693c8c-6dde-494e-b289-ce0a6bcd455a-1204813422600208784-5-0.2" type="actor-impatient_car--7194761606298688260" depart="480.00" departLane="0" departPos="40.16" departSpeed="max" arrivalLane="1" arrivalPos="32.41">
        <route edges="gneE10 gneE3 gneE1"/>
    </vehicle>
    <vehicle id="-flow-random-route-dd693c8c-6dde-494e-b289-ce0a6bcd455a-1204813422600208784-5-1.2" type="actor-patient_car-7551535178859421312" depart="480.00" departLane="0" departPos="40.16" departSpeed="max" arrivalLane="1" arrivalPos="32.41">
        <route edges="gneE10 gneE3 gneE1"/>
    </vehicle>
    <vehicle id="-flow-random-route-f481b8fa-0bd2-47ac-8895-4beccc8ebae1-1204813422600208784-8-0.2" type="actor-impatient_car--7194761606298688260" depart="480.00" departLane="1" departPos="6.64" departSpeed="max" arrivalLane="0" arrivalPos="70.96">
        <route edges="gneE7 gneE7.117 gneE10"/>
    </vehicle>
    <vehicle id="-flow-random-route-f481b8fa-0bd2-47ac-8895-4beccc8ebae1-1204813422600208784-8-1.2" type="actor-patient_car-7551535178859421312" depart="480.00" departLane="1" departPos="6.64" departSpeed="max" arrivalLane="0" arrivalPos="70.96">
        <route edges="gneE7 gneE7.117 gneE10"/>
    </vehicle>
    <vehicle id="-flow-random-route-fd899496-c754-4190-83ff-5027e66939b4-1204813422600208784-11-0.2" type="actor-impatient_car--7194761606298688260" depart="480.00" departLane="1" departPos="86.50" departSpeed="max" arrivalLane="0" arrivalPos="10.06">
        <route edges="gneE1.12 gneE5 gneE7 gneE7.117 gneE10"/>
    </vehicle>
    <vehicle id="-flow-random-route-fd899496-c754-4190-83ff-5027e66939b4-1204813422600208784-11-1.2" type="actor-patient_car-7551535178859421312" depart="480.00" departLane="1" departPos="86.50" departSpeed="max" arrivalLane="0" arrivalPos="10.06">
        <route edges="gneE1.12 gneE5 gneE7 gneE7.117 gneE10"/>
    </vehicle>
    <vehicle id="-flow-random-route-1e31f743-5dfb-4057-9b38-4dd6ad5a1698-1204813422600208784-3-0.3" type="actor-impatient_car--7194761606298688260" depart="720.00" departLane="0" departPos="32.46" departSpeed="max" arrivalLane="0" arrivalPos="106.47">
        <route edges="gneE7.117 gneE10 gneE3 gneE1 gneE1.12 gneE5 gneE7 gneE7.117 gneE7.141 gneE8"/>
    </vehicle>
    <vehicle id="-flow-random-route-1e31f743-5dfb-4057-9b38-4dd6ad5a1698-1204813422600208784-3-1.3" type="actor-patient_car-7551535178859421312" depart="720.00" departLane="0" departPos="32.46" departSpeed="max" arrivalLane="0" arrivalPos="106.47">
        <route edges="gneE7.117 gneE10 gneE3 gneE1 gneE1.12 gneE5 gneE7 gneE7.117 gneE7.141 gneE8"/>
    </vehicle>
    <vehicle id="-flow-random-route-1f672193-3428-4555-89b7-427e8356ef10-1204813422600208784-7-0.3" type="actor-impatient_car--7194761606298688260" depart="720.00" departLane="0" departPos="9.18" departSpeed="max" arrivalLane="0" arrivalPos="20.13">
        <route edges="gneE1 gneE1.12 gneE5 gneE7 gneE7.117 gneE7.141 gneE8 gneE9 gneE2 gneE1"/>
    </vehicle>
    <vehicle id="-flow-random-route-1f672193-3428-4555-89b7-427e8356ef10-1204813422600208784-7-1.3" type="actor-patient_car-7551535178859421312" depart="720.00" departLane="0" departPos="9.18" departSpeed="max" arrivalLane="0" arrivalPos="20.13">
        <route edges="gneE1 gneE1.12 gneE5 gneE7 gneE7.117 gneE7.141 gneE8 gneE9 gneE2 gneE1"/>
    </vehicle>
    <vehicle id="-flow-random-route-5c70424c-ec27-4c24-9b5c-13e3176bfe37-1204813422600208784-4-0.3" type="actor-impatient_car--7194761606298688260" depart="720.00" departLane="0" departPos="5.01" departSpeed="max" arrivalLane="0" arrivalPos="63.09">
        <route edges="gneE7.141 gneE8 gneE9"/>
    </vehicle>
    <vehicle id="-flow-random-route-5c70424c-ec27-4c24-9b5c-13e3176bfe37-1204813422600208784-4-1.3" type="actor-patient_car-7551535178859421312" depart="720.00" departLane="0" departPos="5.01" departSpeed="max" arrivalLane="0" arrivalPos="63.09">
        <route edges="gneE7.141 gneE8 gneE9"/>
    </vehicle>
    <vehicle id="-flow-random-route-617b745b-fcd8-4599-9b61-1e0271134299-1204813422600208784-9-0.3" type="actor-impatient_car--7194761606298688260" depart="720.00" departLane="0" departPos="57.91" departSpeed="max" arrivalLane="1" arrivalPos="83.30">
        <route edges="gneE7.141 gneE8 gneE9"/>