<?xml version="1.0" encoding="UTF-8"?>

<!-- generated on 2020年09月18日 星期五 23时41分32秒 by Eclipse SUMO netedit Version 1.6.0
<configuration xmlns:xsi="http://www.w3.org/2001/XMLSchema-instance" xsi:noNamespaceSchemaLocation="http://sumo.dlr.de/xsd/netconvertConfiguration.xsd">

    <output>
        <output-file value="/home/xyf/dai/HUAWEI-DAI-TASK1-master/dataset_public/demo1_4_triangle/map.net.xml"/>
    </output>

    <processing>
        <offset.disable-normalization value="true"/>
    </processing>

    <junctions>
        <no-turnarounds value="true"/>
    </junctions>

    <report>
        <aggregate-warnings value="5"/>
    </report>

</configuration>
-->

<net version="1.6" junctionCornerDetail="5" limitTurnSpeed="5.50" xmlns:xsi="http://www.w3.org/2001/XMLSchema-instance" xsi:noNamespaceSchemaLocation="http://sumo.dlr.de/xsd/net_file.xsd">

    <location netOffset="0.00,0.00" convBoundary="0.00,-100.00,200.00,100.00" origBoundary="10000000000.00,10000000000.00,-10000000000.00,-10000000000.00" projParameter="!"/>

    <edge id=":gneJ7_0" function="internal">
        <lane id=":gneJ7_0_0" index="0" speed="6.30" length="12.54" shape="104.29,94.99 102.15,98.21 100.00,99.28 97.85,98.21 95.71,94.99"/>
    </edge>
    <edge id=":gneJ7_1" function="internal">
        <lane id=":gneJ7_1_0" index="0" speed="4.02" length="4.18" shape="98.57,93.56 99.28,94.63 100.00,94.99 100.72,94.63 101.43,93.56"/>
    </edge>
    <edge id=":gneJ8_0" function="internal">
        <lane id=":gneJ8_0_0" index="0" speed="6.16" length="10.83" shape="0.88,-94.65 -0.15,-97.69 0.22,-99.86 2.00,-101.17 5.18,-101.60"/>
    </edge>
    <edge id=":gneJ8_1" function="internal">
        <lane id=":gneJ8_1_0" index="0" speed="3.95" length="3.61" shape="5.18,-98.40 4.12,-98.26 3.53,-97.82 3.40,-97.10 3.75,-96.08"/>
    </edge>
    <edge id=":gneJ9_0" function="internal">
        <lane id=":gneJ9_0_0" index="0" speed="6.16" length="10.83" shape="194.82,-101.60 198.00,-101.17 199.78,-99.86 200.15,-97.69 199.12,-94.65"/>
    </edge>
    <edge id=":gneJ9_1" function="internal">
        <lane id=":gneJ9_1_0" index="0" speed="3.95" length="3.61" shape="196.25,-96.08 196.60,-97.10 196.47,-97.82 195.88,-98.26 194.82,-98.40"/>
    </edge>

    <edge id="-gneE6" from="gneJ8" to="gneJ7" priority="-1">
        <lane id="-gneE6_0" index="0" speed="13.89" length="212.03" shape="3.75,-96.08 98.57,93.56"/>
    </edge>
    <edge id="-gneE7" from="gneJ9" to="gneJ8" priority="-1">
        <lane id="-gneE7_0" index="0" speed="13.89" length="189.64" shape="194.82,-98.40 5.18,-98.40"/>
    </edge>
    <edge id="-gneE8" from="gneJ7" to="gneJ9" priority="-1">
        <lane id="-gneE8_0" index="0" speed="13.89" length="212.03" shape="101.43,93.56 196.25,-96.08"/>
    </edge>
    <edge id="gneE6" from="gneJ7" to="gneJ8" priority="-1">
        <lane id="gneE6_0" index="0" speed="13.89" length="212.03" shape="95.71,94.99 0.88,-94.65"/>
    </edge>
    <edge id="gneE7" from="gneJ8" to="gneJ9" priority="-1">
        <lane id="gneE7_0" index="0" speed="13.89" length="189.64" shape="5.18,-101.60 194.82,-101.60"/>
    </edge>
    <edge id="gneE8" from="gneJ9" to="gneJ7" priority="-1">
        <lane id="gneE8_0" index="0" speed="13.89" length="212.03" shape="199.12,-94.65 104.29,94.99"/>
    </edge>

    <junction id="gneJ7" type="priority" x="100.00" y="100.00" incLanes="gneE8_0 -gneE6_0" intLanes=":gneJ7_0_0 :gneJ7_1_0" shape="105.72,95.71 100.00,92.84 94.28,95.71 96.18,98.89 98.09,100.80 100.00,101.43 101.91,100.80 103.82,98.89">
        <request index="0" response="00" foes="00" cont="0"/>
        <request index="1" response="00" foes="00" cont="0"/>
    </junction>
    <junction id="gneJ8" type="priority" x="0.00" y="-100.00" incLanes="gneE6_0 -gneE7_0" intLanes=":gneJ8_0_0 :gneJ8_1_0" shape="-0.55,-93.94 5.18,-96.80 5.18,-103.20 2.14,-102.94 -0.06,-102.17 -1.43,-100.88 -1.97,-99.08 -1.67,-96.77">
        <request index="0" response="00" foes="00" cont="0"/>
        <request index="1" response="00" foes="00" cont="0"/>
    </junction>
    <junction id="gneJ9" type="priority" x="200.00" y="-100.00" incLanes="gneE7_0 -gneE8_0" intLanes=":gneJ9_0_0 :gneJ9_1_0" shape="194.82,-103.20 194.82,-96.80 200.55,-93.94 201.67,-96.77 201.97,-99.08 201.43,-100.88 200.06,-102.17 197.86,-102.94">
        <request index="0" response="00" foes="00" cont="0"/>
        <request index="1" response="00" foes="00" cont="0"/>
    </junction>

    <connection from="-gneE6" to="-gneE8" fromLane="0" toLane="0" via=":gneJ7_1_0" dir="r" state="M"/>
    <connection from="-gneE7" to="-gneE6" fromLane="0" toLane="0" via=":gneJ8_1_0" dir="r" state="M"/>
    <connection from="-gneE8" to="-gneE7" fromLane="0" toLane="0" via=":gneJ9_1_0" dir="r" state="M"/>
    <connection from="gneE6" to="gneE7" fromLane="0" toLane="0" via=":gneJ8_0_0" dir="l" state="M"/>
    <connection from="gneE7" to="gneE8" fromLane="0" toLane="0" via=":gneJ9_0_0" dir="l" state="M"/>
    <connection from="gneE8" to="gneE6" fromLane="0" toLane="0" via=":gneJ7_0_0" dir="l" state="M"/>

    <connection from=":gneJ7_0" to="gneE6" fromLane="0" toLane="0" dir="l" state="M"/>
    <connection from=":gneJ7_1" to="-gneE8" fromLane="0" toLane="0" dir="r" state="M"/>
    <connection from=":gneJ8_0" to="gneE7" fromLane="0" toLane="0" dir="l" state="M"/>
    <connection from=":gneJ8_1" to="-gneE6" fromLane="0" toLane="0" dir="r" state="M"/>
    <connection from=":gneJ9_0" to="gneE8" fromLane="0" toLane="0" dir="l" state="M"/>
    <connection from=":gneJ9_1" to="-gneE7" fromLane="0" toLane="0" dir="r" state="M"/>

</net>
