<?xml version="1.0" encoding="UTF-8"?>

<!-- generated on Sun Sep 20 09:13:44 2020 by Eclipse SUMO duarouter Version 1.6.0
<configuration xmlns:xsi="http://www.w3.org/2001/XMLSchema-instance" xsi:noNamespaceSchemaLocation="http://sumo.dlr.de/xsd/duarouterConfiguration.xsd">

    <input>
        <net-file value="../dataset_public/mixed_loop/its_merge_a/map.net.xml"/>
        <route-files value="/tmp/tmpek64s57x/trips.trips.xml"/>
    </input>

    <output>
        <output-file value="../dataset_public/mixed_loop/its_merge_a/traffic/30_patient_car.rou.xml"/>
        <alternatives-output value="../dataset_public/mixed_loop/its_merge_a/traffic/30_patient_car.rou.alt.xml"/>
    </output>

    <processing>
        <unsorted-input value="true"/>
        <repair value="true"/>
    </processing>

    <report>
        <error-log value="/tmp/smarts/_duarouter_routing/traffic/30_patient_car.log"/>
        <no-step-log value="true"/>
    </report>

    <random_number>
        <seed value="42"/>
    </random_number>

</configuration>
-->

<routes xmlns:xsi="http://www.w3.org/2001/XMLSchema-instance" xsi:noNamespaceSchemaLocation="http://sumo.dlr.de/xsd/routes_file.xsd">
    <vType id="actor-car-2104673688690816570" minGap="2.50" speedFactor="normc(0.50,0.20,0.20,2.00)" vClass="passenger" impatience="0.50" lcCooperative="0.5" lcImpatience="0" jmDriveAfterYellowTime="1.0" accel="2.6" decel="4.5" sigma="0.5"/>
    <vehicle id="-flow-random-route-0a5dc980-614c-4d74-8e86-4716ce494ea1-5122255902122205606-21-0.0" type="actor-car-2104673688690816570" depart="0.00" departLane="0" departPos="22.04" departSpeed="max" arrivalLane="0" arrivalPos="38.70">
        <route edges="gneE117 gneE118 gneE119 -gneE121 -gneE120 -gneE97 gneE93 -gneE112 -gneE110 -gneE119"/>
    </vehicle>
    <vehicle id="-flow-random-route-1a3e7be9-e2cf-4fd6-9aae-afe29c896348-5122255902122205606-25-0.0" type="actor-car-2104673688690816570" depart="0.00" departLane="0" departPos="44.95" departSpeed="max" arrivalLane="0" arrivalPos="55.98">
        <route edges="-gneE93 -gneE111 gneE112 -gneE93 -gneE111 gneE112 gneE117 gneE118 gneE119 -gneE121"/>
    </vehicle>
    <vehicle id="-flow-random-route-4abbd93a-d2b9-4377-b20e-c1514ae2ccb7-5122255902122205606-22-0.0" type="actor-car-2104673688690816570" depart="0.00" departLane="0" departPos="42.50" departSpeed="max" arrivalLane="0" arrivalPos="60.97">
        <route edges="-gneE119 -gneE118 -gneE117 -gneE93 -gneE111 gneE112 gneE117 gneE118 gneE119 -gneE121"/>
    </vehicle>
    <vehicle id="-flow-random-route-4c517a3c-6133-490a-a585-7807a475ffd8-5122255902122205606-27-0.0" type="actor-car-2104673688690816570" depart="0.00" departLane="0" departPos="81.43" departSpeed="max" arrivalLane="0" arrivalPos="172.86">
        <route edges="-gneE112 -gneE110 -gneE121 -gneE120"/>
    </vehicle>
    <vehicle id="-flow-random-route-6749d4af-a3b1-4d57-9cd0-16f8a68c570f-5122255902122205606-1-0.0" type="actor-car-2104673688690816570" depart="0.00" departLane="0" departPos="60.93" departSpeed="max" arrivalLane="0" arrivalPos="55.91">
        <route edges="-gneE117 -gneE93 gneE97 gneE120 gneE121 -gneE119 -gneE118 -gneE117 -gneE112 gneE111"/>
    </vehicle>
    <vehicle id="-flow-random-route-68d65bcd-5b15-45bb-94f5-ee37b4befe9c-5122255902122205606-2-0.0" type="actor-car-2104673688690816570" depart="0.00" departLane="0" departPos="70.55" departSpeed="max" arrivalLane="0" arrivalPos="15.44">
        <route edges="-gneE119 -gneE118 -gneE117 -gneE112 -gneE110 -gneE121 -gneE120 -gneE97 gneE93 gneE117"/>
    </vehicle>
    <vehicle id="-flow-random-route-6f7b9821-96bd-4149-9cc4-56efc7adcef1-5122255902122205606-9-0.0" type="actor-car-2104673688690816570" depart="0.00" departLane="0" departPos="11.64" departSpeed="max" arrivalLane="0" arrivalPos="45.61">
        <route edges="gneE93 gneE117 gneE118 gneE119 gneE110 gneE112 gneE117 gneE118 gneE119 -gneE121"/>
    </vehicle>
    <vehicle id="-flow-random-route-70d41d9e-a799-4b10-88a8-fd1d0626ba5e-5122255902122205606-7-0.0" type="actor-car-2104673688690816570" depart="0.00" departLane="0" departPos="12.64" departSpeed="max" arrivalLane="0" arrivalPos="9.81">
        <route edges="gneE111 gneE93 -gneE112 gneE111 gneE97 gneE120 gneE121 -gneE119 -gneE118 -gneE117"/>
    </vehicle>
    <vehicle id="-flow-random-route-73dc8fdd-e2b2-45e5-beb7-1abc2f737e36-5122255902122205606-6-0.0" type="actor-car-2104673688690816570" depart="0.00" departLane="0" departPos="14.37" departSpeed="max" arrivalLane="0" arrivalPos="44.56">
        <route edges="-gneE93 gneE97 gneE120 gneE121 gneE110"/>
    </vehicle>
    <vehicle id="-flow-random-route-7cd79e3c-4494-45b9-9450-32f9bf91d5e4-5122255902122205606-4-0.0" type="actor-car-2104673688690816570" depart="0.00" departLane="0" departPos="26.34" departSpeed="max" arrivalLane="0" arrivalPos="153.13">
        <route edges="gneE117 gneE118"/>
    </vehicle>
    <vehicle id="-flow-random-route-7ee14bae-9f31-4e34-9f78-2906f5fbe2bb-5122255902122205606-13-0.0" type="actor-car-2104673688690816570" depart="0.00" departLane="0" departPos="25.85" departSpeed="max" arrivalLane="0" arrivalPos="80.54">
        <route edges="-gneE121 -gneE120 -gneE97 gneE93 -gneE112 gneE111 gneE93 -gneE112 gneE111 gneE97"/>
    </vehicle>
    <vehicle id="-flow-random-route-89017bfe-cf26-46ad-8046-a592b1381a58-5122255902122205606-24-0.0" type="actor-car-2104673688690816570" depart="0.00" departLane="0" departPos="25.00" departSpeed="max" arrivalLane="0" arrivalPos="8.56">
        <route edges="-gneE112 gneE111 gneE93 gneE117 gneE118 gneE119 gneE110 gneE111 gneE97 gneE120"/>
    </vehicle>
    <vehicle id="-flow-random-route-89445c04-0200-4410-90a1-997106165263-5122255902122205606-12-0.0" type="actor-car-2104673688690816570" depart="0.00" departLane="0" departPos="88.89" departSpeed="max" arrivalLane="0" arrivalPos="54.95">
        <route edges="-gneE118 -gneE117 -gneE112 -gneE110"/>
    </vehicle>
    <vehicle id="-flow-random-route-89694976-b815-465a-9c9e-a623b5d88fd3-5122255902122205606-28-0.0" type="actor-car-2104673688690816570" depart="0.00" departLane="0" departPos="49.86" departSpeed="max" arrivalLane="0" arrivalPos="63.23">
        <route edges="gneE97 gneE120 gneE121 -gneE119"/>
    </vehicle>
    <vehicle id="-flow-random-route-947c4721-9b35-4d40-8e38-743a3a115711-5122255902122205606-0-0.0" type="actor-car-2104673688690816570" depart="0.00" departLane="0" departPos="31.02" departSpeed="max" arrivalLane="0" arrivalPos="6.52">
        <route edges="-gneE120 -gneE97 -gneE111 -gneE110 -gneE119 -gneE118 -gneE117 -gneE93 gneE97 gneE120"/>
    </vehicle>
    <vehicle id="-flow-random-route-9c9992f7-99d7-4352-82eb-631654671728-5122255902122205606-15-0.0" type="actor-car-2104673688690816570" depart="0.00" departLane="0" departPos="93.59" departSpeed="max" arrivalLane="0" arrivalPos="17.89">
        <route edges="gneE121 -gneE119 -gneE118 -gneE117 -gneE93 -gneE111 gneE112 gneE117 gneE118 gneE119"/>
    </vehicle>
    <vehicle id="-flow-random-route-9dcee881-acb3-40ae-95eb-9ff4da107913-5122255902122205606-20-0.0" type="actor-car-2104673688690816570" depart="0.00" departLane="0" departPos="20.90" departSpeed="max" arrivalLane="0" arrivalPos="62.42">
        <route edges="-gneE121 -gneE120 -gneE97 gneE93 gneE117 gneE118 gneE119 gneE110 gneE112 -gneE93"/>
    </vehicle>
    <vehicle id="-flow-random-route-a2ec5ddb-14b1-4296-8126-4aed1e77ab16-5122255902122205606-29-0.0" type="actor-car-2104673688690816570" depart="0.00" departLane="0" departPos="21.69" departSpeed="max" arrivalLane="0" arrivalPos="165.19">
        <route edges="gneE112 -gneE93 -gneE111 -gneE110 -gneE119 -gneE118 -gneE117 -gneE93 gneE97 gneE120"/>
    </vehicle>
    <vehicle id="-flow-random-route-b9fabd61-218a-4e63-b8c3-7f992886f9b7-5122255902122205606-19-0.0" type="actor-car-2104673688690816570" depart="0.00" departLane="0" departPos="32.55" departSpeed="max" arrivalLane="0" arrivalPos="144.82">
        <route edges="-gneE112 -gneE110 -gneE121 -gneE120"/>
    </vehicle>
    <vehicle id="-flow-random-route-cfeec9b8-5258-424a-98ac-c0c813238996-5122255902122205606-14-0.0" type="actor-car-2104673688690816570" depart="0.00" departLane="0" departPos="65.95" departSpeed="max" arrivalLane="0" arrivalPos="7.81">
        <route edges="gneE112 -gneE93 gneE97 gneE120"/>
    </vehicle>
    <vehicle id="-flow-random-route-d2a1e8d6-ce9c-42fc-92cd-cf421f2283eb-5122255902122205606-23-0.0" type="actor-car-2104673688690816570" depart="0.00" departLane="0" departPos="4.72" departSpeed="max" arrivalLane="0" arrivalPos="26.15">
        <route edges="gneE111 gneE93 -gneE112 -gneE110 -gneE119 -gneE118 -gneE117 -gneE93 -gneE111 gneE112"/>
    </vehicle>
    <vehicle id="-flow-random-route-dcdac94a-7eee-466a-9374-480043c67a7d-5122255902122205606-10-0.0" type="actor-car-2104673688690816570" depart="0.00" departLane="0" departPos="40.83" departSpeed="max" arrivalLane="0" arrivalPos="85.95">
        <route edges="gneE120 gneE121 gneE110 gneE112 -gneE93 -gneE111 -gneE110 -gneE121 -gneE120 -gneE97"/>
    </vehicle>
    <vehicle id="-flow-random-route-dd93a7a0-e88c-467a-adcc-1db1f204033c-5122255902122205606-8-0.0" type="actor-car-2104673688690816570" depart="0.00" departLane="0" departPos="60.05" departSpeed="max" arrivalLane="0" arrivalPos="68.78">
        <route edges="gneE93 gneE117 gneE118"/>
    </vehicle>
    <vehicle id="-flow-random-route-de88ee85-f98a-41b5-b8e9-a701b00d40ad-5122255902122205606-26-0.0" type="actor-car-2104673688690816570" depart="0.00" departLane="0" departPos="12.65" departSpeed="max" arrivalLane="0" arrivalPos="112.26">
        <route edges="-gneE111 -gneE110 -gneE119 -gneE118 -gneE117 -gneE93 -gneE111 gneE112 gneE117 gneE118"/>
    </vehicle>
    <vehicle id="-flow-random-route-e4fcc64c-b554-423b-bd7f-4e2cd6970ff7-5122255902122205606-18-0.0" type="actor-car-2104673688690816570" depart="0.00" departLane="0" departPos="117.29" departSpeed="max" arrivalLane="0" arrivalPos="64.12">
        <route edges="-gneE119 -gneE118 -gneE117 -gneE112 gneE111 gneE93 gneE117 gneE118 gneE119 gneE110"/>
    </vehicle>
    <vehicle id="-flow-random-route-e83a7230-d3f5-4990-b89c-0d821a44b2eb-5122255902122205606-11-0.0" type="actor-car-2104673688690816570" depart="0.00" departLane="0" departPos="127.94" departSpeed="max" arrivalLane="0" arrivalPos="89.36">
        <route edges="-gneE120 -gneE97 gneE93 -gneE112 gneE111 gneE97 gneE120 gneE121 gneE110 gneE112"/>
    </vehicle>
    <vehicle id="-flow-random-route-f0648499-b34f-4ec4-9f94-6113c4ecb00b-5122255902122205606-3-0.0" type="actor-car-2104673688690816570" depart="0.00" departLane="0" departPos="91.95" departSpeed="max" arrivalLane="0" arrivalPos="21.63">
        <route edges="-gneE112 -gneE110 -gneE119 -gneE118 -gneE117 -gneE93 gneE97 gneE120 gneE121 gneE110"/>
    </vehicle>
    <vehicle id="-flow-random-route-f4a4dfee-3c97-423c-91ce-18e982d05446-5122255902122205606-16-0.0" type="actor-car-2104673688690816570" depart="0.00" departLane="0" departPos="48.02" departSpeed="max" arrivalLane="0" arrivalPos="115.38">
        <route edges="-gneE112 gneE111 gneE93 gneE117 gneE118"/>
    </vehicle>
    <vehicle id="-flow-random-route-fd36e9b4-7567-445e-8bd2-19568612a6c5-5122255902122205606-17-0.0" type="actor-car-2104673688690816570" depart="0.00" departLane="0" departPos="70.25" departSpeed="max" arrivalLane="0" arrivalPos="68.58">
        <route edges="-gneE97 gneE93 -gneE112 -gneE110 -gneE119 -gneE118 -gneE117 -gneE112 -gneE110 -gneE121"/>
    </vehicle>
    <vehicle id="-flow-random-route-fed3659e-5e44-4eb3-b901-123d8d4b5b30-5122255902122205606-5-0.0" type="actor-car-2104673688690816570" depart="0.00" departLane="0" departPos="155.95" departSpeed="max" arrivalLane="0" arrivalPos="36.11">
        <route edges="-gneE120 -gneE97 gneE93 -gneE112 gneE111 gneE93 gneE117 gneE118 gneE119 -gneE121"/>
    </vehicle>
    <vehicle id="-flow-random-route-0a5dc980-614c-4d74-8e86-4716ce494ea1-5122255902122205606-21-0.1" type="actor-car-2104673688690816570" depart="120.00" departLane="0" departPos="22.04" departSpeed="max" arrivalLane="0" arrivalPos="38.70">
        <route edges="gneE117 gneE118 gneE119 -gneE121 -gneE120 -gneE97 gneE93 -gneE112 -gneE110 -gneE119"/>
    </vehicle>
    <vehicle id="-flow-random-route-1a3e7be9-e2cf-4fd6-9aae-afe29c896348-5122255902122205606-25-0.1" type="actor-car-2104673688690816570" depart="120.00" departLane="0" departPos="44.95" departSpeed="max" arrivalLane="0" arrivalPos="55.98">
        <route edges="-gneE93 -gneE111 gneE112 -gneE93 -gneE111 gneE112 gneE117 gneE118 gneE119 -gneE121"/>
    </vehicle>
    <vehicle id="-flow-random-route-4abbd93a-d2b9-4377-b20e-c1514ae2ccb7-5122255902122205606-22-0.1" type="actor-car-2104673688690816570" depart="120.00" departLane="0" departPos="42.50" departSpeed="max" arrivalLane="0" arrivalPos="60.97">
        <route edges="-gneE119 -gneE118 -gneE117 -gneE93 -gneE111 gneE112 gneE117 gneE118 gneE119 -gneE121"/>
    </vehicle>
    <vehicle id="-flow-random-route-4c517a3c-6133-490a-a585-7807a475ffd8-5122255902122205606-27-0.1" type="actor-car-2104673688690816570" depart="120.00" departLane="0" departPos="81.43" departSpeed="max" arrivalLane="0" arrivalPos="172.86">
        <route edges="-gneE112 -gneE110 -gneE121 -gneE120"/>
    </vehicle>
    <vehicle id="-flow-random-route-6749d4af-a3b1-4d57-9cd0-16f8a68c570f-5122255902122205606-1-0.1" type="actor-car-2104673688690816570" depart="120.00" departLane="0" departPos="60.93" departSpeed="max" arrivalLane="0" arrivalPos="55.91">
        <route edges="-gneE117 -gneE93 gneE97 gneE120 gneE121 -gneE119 -gneE118 -gneE117 -gneE112 gneE111"/>
    </vehicle>
    <vehicle id="-flow-random-route-68d65bcd-5b15-45bb-94f5-ee37b4befe9c-5122255902122205606-2-0.1" type="actor-car-2104673688690816570" depart="120.00" departLane="0" departPos="70.55" departSpeed="max" arrivalLane="0" arrivalPos="15.44">
        <route edges="-gneE119 -gneE118 -gneE117 -gneE112 -gneE110 -gneE121 -gneE120 -gneE97 gneE93 gneE117"/>
    </vehicle>
    <vehicle id="-flow-random-route-6f7b9821-96bd-4149-9cc4-56efc7adcef1-5122255902122205606-9-0.1" type="actor-car-2104673688690816570" depart="120.00" departLane="0" departPos="11.64" departSpeed="max" arrivalLane="0" arrivalPos="45.61">
        <route edges="gneE93 gneE117 gneE118 gneE119 gneE110 gneE112 gneE117 gneE118 gneE119 -gneE121"/>
    </vehicle>
    <vehicle id="-flow-random-route-70d41d9e-a799-4b10-88a8-fd1d0626ba5e-5122255902122205606-7-0.1" type="actor-car-2104673688690816570" depart="120.00" departLane="0" departPos="12.64" departSpeed="max" arrivalLane="0" arrivalPos="9.81">
        <route edges="gneE111 gneE93 -gneE112 gneE111 gneE97 gneE120 gneE121 -gneE119 -gneE118 -gneE117"/>
    </vehicle>
    <vehicle id="-flow-random-route-73dc8fdd-e2b2-45e5-beb7-1abc2f737e36-5122255902122205606-6-0.1" type="actor-car-2104673688690816570" depart="120.00" departLane="0" departPos="14.37" departSpeed="max" arrivalLane="0" arrivalPos="44.56">
        <route edges="-gneE93 gneE97 gneE120 gneE121 gneE110"/>
    </vehicle>
    <vehicle id="-flow-random-route-7cd79e3c-4494-45b9-9450-32f9bf91d5e4-5122255902122205606-4-0.1" type="actor-car-2104673688690816570" depart="120.00" departLane="0" departPos="26.34" departSpeed="max" arrivalLane="0" arrivalPos="153.13">
        <route edges="gneE117 gneE118"/>
    </vehicle>
    <vehicle id="-flow-random-route-7ee14bae-9f31-4e34-9f78-2906f5fbe2bb-5122255902122205606-13-0.1" type="actor-car-2104673688690816570" depart="120.00" departLane="0" departPos="25.85" departSpeed="max" arrivalLane="0" arrivalPos="80.54">
        <route edges="-gneE121 -gneE120 -gneE97 gneE93 -gneE112 gneE111 gneE93 -gneE112 gneE111 gneE97"/>
    </vehicle>
    <vehicle id="-flow-random-route-89017bfe-cf26-46ad-8046-a592b1381a58-5122255902122205606-24-0.1" type="actor-car-2104673688690816570" depart="120.00" departLane="0" departPos="25.00" departSpeed="max" arrivalLane="0" arrivalPos="8.56">
        <route edges="-gneE112 gneE111 gneE93 gneE117 gneE118 gneE119 gneE110 gneE111 gneE97 gneE120"/>
    </vehicle>
    <vehicle id="-flow-random-route-89445c04-0200-4410-90a1-997106165263-5122255902122205606-12-0.1" type="actor-car-2104673688690816570" depart="120.00" departLane="0" departPos="88.89" departSpeed="max" arrivalLane="0" arrivalPos="54.95">
        <route edges="-gneE118 -gneE117 -gneE112 -gneE110"/>
    </vehicle>
    <vehicle id="-flow-random-route-89694976-b815-465a-9c9e-a623b5d88fd3-5122255902122205606-28-0.1" type="actor-car-2104673688690816570" depart="120.00" departLane="0" departPos="49.86" departSpeed="max" arrivalLane="0" arrivalPos="63.23">
        <route edges="gneE97 gneE120 gneE121 -gneE119"/>
    </vehicle>
    <vehicle id="-flow-random-route-947c4721-9b35-4d40-8e38-743a3a115711-5122255902122205606-0-0.1" type="actor-car-2104673688690816570" depart="120.00" departLane="0" departPos="31.02" departSpeed="max" arrivalLane="0" arrivalPos="6.52">
        <route edges="-gneE120 -gneE97 -gneE111 -gneE110 -gneE119 -gneE118 -gneE117 -gneE93 gneE97 gneE120"/>
    </vehicle>
    <vehicle id="-flow-random-route-9c9992f7-99d7-4352-82eb-631654671728-5122255902122205606-15-0.1" type="actor-car-2104673688690816570" depart="120.00" departLane="0" departPos="93.59" departSpeed="max" arrivalLane="0" arrivalPos="17.89">
        <route edges="gneE121 -gneE119 -gneE118 -gneE117 -gneE93 -gneE111 gneE112 gneE117 gneE118 gneE119"/>
    </vehicle>
    <vehicle id="-flow-random-route-9dcee881-acb3-40ae-95eb-9ff4da107913-5122255902122205606-20-0.1" type="actor-car-2104673688690816570" depart="120.00" departLane="0" departPos="20.90" departSpeed="max" arrivalLane="0" arrivalPos="62.42">
        <route edges="-gneE121 -gneE120 -gneE97 gneE93 gneE117 gneE118 gneE119 gneE110 gneE112 -gneE93"/>
    </vehicle>
    <vehicle id="-flow-random-route-a2ec5ddb-14b1-4296-8126-4aed1e77ab16-5122255902122205606-29-0.1" type="actor-car-2104673688690816570" depart="120.00" departLane="0" departPos="21.69" departSpeed="max" arrivalLane="0" arrivalPos="165.19">
        <route edges="gneE112 -gneE93 -gneE111 -gneE110 -gneE119 -gneE118 -gneE117 -gneE93 gneE97 gneE120"/>
    </vehicle>
    <vehicle id="-flow-random-route-b9fabd61-218a-4e63-b8c3-7f992886f9b7-5122255902122205606-19-0.1" type="actor-car-2104673688690816570" depart="120.00" departLane="0" departPos="32.55" departSpeed="max" arrivalLane="0" arrivalPos="144.82">
        <route edges="-gneE112 -gneE110 -gneE121 -gneE120"/>
    </vehicle>
    <vehicle id="-flow-random-route-cfeec9b8-5258-424a-98ac-c0c813238996-5122255902122205606-14-0.1" type="actor-car-2104673688690816570" depart="120.00" departLane="0" departPos="65.95" departSpeed="max" arrivalLane="0" arrivalPos="7.81">
        <route edges="gneE112 -gneE93 gneE97 gneE120"/>
    </vehicle>
    <vehicle id="-flow-random-route-d2a1e8d6-ce9c-42fc-92cd-cf421f2283eb-5122255902122205606-23-0.1" type="actor-car-2104673688690816570" depart="120.00" departLane="0" departPos="4.72" departSpeed="max" arrivalLane="0" arrivalPos="26.15">
        <route edges="gneE111 gneE93 -gneE112 -gneE110 -gneE119 -gneE118 -gneE117 -gneE93 -gneE111 gneE112"/>
    </vehicle>
    <vehicle id="-flow-random-route-dcdac94a-7eee-466a-9374-480043c67a7d-5122255902122205606-10-0.1" type="actor-car-2104673688690816570" depart="120.00" departLane="0" departPos="40.83" departSpeed="max" arrivalLane="0" arrivalPos="85.95">
        <route edges="gneE120 gneE121 gneE110 gneE112 -gneE93 -gneE111 -gneE110 -gneE121 -gneE120 -gneE97"/>
    </vehicle>
    <vehicle id="-flow-random-route-dd93a7a0-e88c-467a-adcc-1db1f204033c-5122255902122205606-8-0.1" type="actor-car-2104673688690816570" depart="120.00" departLane="0" departPos="60.05" departSpeed="max" arrivalLane="0" arrivalPos="68.78">
        <route edges="gneE93 gneE117 gneE118"/>
    </vehicle>
    <vehicle id="-flow-random-route-de88ee85-f98a-41b5-b8e9-a701b00d40ad-5122255902122205606-26-0.1" type="actor-car-2104673688690816570" depart="120.00" departLane="0" departPos="12.65" departSpeed="max" arrivalLane="0" arrivalPos="112.26">
        <route edges="-gneE111 -gneE110 -gneE119 -gneE118 -gneE117 -gneE93 -gneE111 gneE112 gneE117 gneE118"/>
    </vehicle>
    <vehicle id="-flow-random-route-e4fcc64c-b554-423b-bd7f-4e2cd6970ff7-5122255902122205606-18-0.1" type="actor-car-2104673688690816570" depart="120.00" departLane="0" departPos="117.29" departSpeed="max" arrivalLane="0" arrivalPos="64.12">
        <route edges="-gneE119 -gneE118 -gneE117 -gneE112 gneE111 gneE93 gneE117 gneE118 gneE119 gneE110"/>
    </vehicle>
    <vehicle id="-flow-random-route-e83a7230-d3f5-4990-b89c-0d821a44b2eb-5122255902122205606-11-0.1" type="actor-car-2104673688690816570" depart="120.00" departLane="0" departPos="127.94" departSpeed="max" arrivalLane="0" arrivalPos="89.36">
        <route edges="-gneE120 -gneE97 gneE93 -gneE112 gneE111 gneE97 gneE120 gneE121 gneE110 gneE112"/>
    </vehicle>
    <vehicle id="-flow-random-route-f0648499-b34f-4ec4-9f94-6113c4ecb00b-5122255902122205606-3-0.1" type="actor-car-2104673688690816570" depart="120.00" departLane="0" departPos="91.95" departSpeed="max" arrivalLane="0" arrivalPos="21.63">
        <route edges="-gneE112 -gneE110 -gneE119 -gneE118 -gneE117 -gneE93 gneE97 gneE120 gneE121 gneE110"/>
    </vehicle>
    <vehicle id="-flow-random-route-f4a4dfee-3c97-423c-91ce-18e982d05446-5122255902122205606-16-0.1" type="actor-car-2104673688690816570" depart="120.00" departLane="0" departPos="48.02" departSpeed="max" arrivalLane="0" arrivalPos="115.38">
        <route edges="-gneE112 gneE111 gneE93 gneE117 gneE118"/>
    </vehicle>
    <vehicle id="-flow-random-route-fd36e9b4-7567-445e-8bd2-19568612a6c5-5122255902122205606-17-0.1" type="actor-car-2104673688690816570" depart="120.00" departLane="0" departPos="70.25" departSpeed="max" arrivalLane="0" arrivalPos="68.58">
        <route edges="-gneE97 gneE93 -gneE112 -gneE110 -gneE119 -gneE118 -gneE117 -gneE112 -gneE110 -gneE121"/>
    </vehicle>
    <vehicle id="-flow-random-route-fed3659e-5e44-4eb3-b901-123d8d4b5b30-5122255902122205606-5-0.1" type="actor-car-2104673688690816570" depart="120.00" departLane="0" departPos="155.95" departSpeed="max" arrivalLane="0" arrivalPos="36.11">
        <route edges="-gneE120 -gneE97 gneE93 -gneE112 gneE111 gneE93 gneE117 gneE118 gneE119 -gneE121"/>
    </vehicle>
    <vehicle id="-flow-random-route-0a5dc980-614c-4d74-8e86-4716ce494ea1-5122255902122205606-21-0.2" type="actor-car-2104673688690816570" depart="240.00" departLane="0" departPos="22.04" departSpeed="max" arrivalLane="0" arrivalPos="38.70">
        <route edges="gneE117 gneE118 gneE119 -gneE121 -gneE120 -gneE97 gneE93 -gneE112 -gneE110 -gneE119"/>
    </vehicle>
    <vehicle id="-flow-random-route-1a3e7be9-e2cf-4fd6-9aae-afe29c896348-5122255902122205606-25-0.2" type="actor-car-2104673688690816570" depart="240.00" departLane="0" departPos="44.95" departSpeed="max" arrivalLane="0" arrivalPos="55.98">
        <route edges="-gneE93 -gneE111 gneE112 -gneE93 -gneE111 gneE112 gneE117 gneE118 gneE119 -gneE121"/>
    </vehicle>
    <vehicle id="-flow-random-route-4abbd93a-d2b9-4377-b20e-c1514ae2ccb7-5122255902122205606-22-0.2" type="actor-car-2104673688690816570" depart="240.00" departLane="0" departPos="42.50" departSpeed="max" arrivalLane="0" arrivalPos="60.97">
        <route edges="-gneE119 -gneE118 -gneE117 -gneE93 -gneE111 gneE112 gneE117 gneE118 gneE119 -gneE121"/>
    </vehicle>
    <vehicle id="-flow-random-route-4c517a3c-6133-490a-a585-7807a475ffd8-5122255902122205606-27-0.2" type="actor-car-2104673688690816570" depart="240.00" departLane="0" departPos="81.43" departSpeed="max" arrivalLane="0" arrivalPos="172.86">
        <route edges="-gneE112 -gneE110 -gneE121 -gneE120"/>
    </vehicle>
    <vehicle id="-flow-random-route-6749d4af-a3b1-4d57-9cd0-16f8a68c570f-5122255902122205606-1-0.2" type="actor-car-2104673688690816570" depart="240.00" departLane="0" departPos="60.93" departSpeed="max" arrivalLane="0" arrivalPos="55.91">
        <route edges="-gneE117 -gneE93 gneE97 gneE120 gneE121 -gneE119 -gneE118 -gneE117 -gneE112 gneE111"/>
    </vehicle>
    <vehicle id="-flow-random-route-68d65bcd-5b15-45bb-94f5-ee37b4befe9c-5122255902122205606-2-0.2" type="actor-car-2104673688690816570" depart="240.00" departLane="0" departPos="70.55" departSpeed="max" arrivalLane="0" arrivalPos="15.44">
        <route edges="-gneE119 -gneE118 -gneE117 -gneE112 -gneE110 -gneE121 -gneE120 -gneE97 gneE93 gneE117"/>
    </vehicle>
    <vehicle id="-flow-random-route-6f7b9821-96bd-4149-9cc4-56efc7adcef1-5122255902122205606-9-0.2" type="actor-car-2104673688690816570" depart="240.00" departLane="0" departPos="11.64" departSpeed="max" arrivalLane="0" arrivalPos="45.61">
        <route edges="gneE93 gneE117 gneE118 gneE119 gneE110 gneE112 gneE117 gneE118 gneE119 -gneE121"/>
    </vehicle>
    <vehicle id="-flow-random-route-70d41d9e-a799-4b10-88a8-fd1d0626ba5e-5122255902122205606-7-0.2" type="actor-car-2104673688690816570" depart="240.00" departLane="0" departPos="12.64" departSpeed="max" arrivalLane="0" arrivalPos="9.81">
        <route edges="gneE111 gneE93 -gneE112 gneE111 gneE97 gneE120 gneE121 -gneE119 -gneE118 -gneE117"/>
    </vehicle>
    <vehicle id="-flow-random-route-73dc8fdd-e2b2-45e5-beb7-1abc2f737e36-5122255902122205606-6-0.2" type="actor-car-2104673688690816570" depart="240.00" departLane="0" departPos="14.37" departSpeed="max" arrivalLane="0" arrivalPos="44.56">
        <route edges="-gneE93 gneE97 gneE120 gneE121 gneE110"/>
    </vehicle>
    <vehicle id="-flow-random-route-7cd79e3c-4494-45b9-9450-32f9bf91d5e4-5122255902122205606-4-0.2" type="actor-car-2104673688690816570" depart="240.00" departLane="0" departPos="26.34" departSpeed="max" arrivalLane="0" arrivalPos="153.13">
        <route edges="gneE117 gneE118"/>
    </vehicle>
    <vehicle id="-flow-random-route-7ee14bae-9f31-4e34-9f78-2906f5fbe2bb-5122255902122205606-13-0.2" type="actor-car-2104673688690816570" depart="240.00" departLane="0" departPos="25.85" departSpeed="max" arrivalLane="0" arrivalPos="80.54">
        <route edges="-gneE121 -gneE120 -gneE97 gneE93 -gneE112 gneE111 gneE93 -gneE112 gneE111 gneE97"/>
    </vehicle>
    <vehicle id="-flow-random-route-89017bfe-cf26-46ad-8046-a592b1381a58-5122255902122205606-24-0.2" type="actor-car-2104673688690816570" depart="240.00" departLane="0" departPos="25.00" departSpeed="max" arrivalLane="0" arrivalPos="8.56">
        <route edges="-gneE112 gneE111 gneE93 gneE117 gneE118 gneE119 gneE110 gneE111 gneE97 gneE120"/>
    </vehicle>
    <vehicle id="-flow-random-route-89445c04-0200-4410-90a1-997106165263-5122255902122205606-12-0.2" type="actor-car-2104673688690816570" depart="240.00" departLane="0" departPos="88.89" departSpeed="max" arrivalLane="0" arrivalPos="54.95">
        <route edges="-gneE118 -gneE117 -gneE112 -gneE110"/>
    </vehicle>
    <vehicle id="-flow-random-route-89694976-b815-465a-9c9e-a623b5d88fd3-5122255902122205606-28-0.2" type="actor-car-2104673688690816570" depart="240.00" departLane="0" departPos="49.86" departSpeed="max" arrivalLane="0" arrivalPos="63.23">
        <route edges="gneE97 gneE120 gneE121 -gneE119"/>
    </vehicle>
    <vehicle id="-flow-random-route-947c4721-9b35-4d40-8e38-743a3a115711-5122255902122205606-0-0.2" type="actor-car-2104673688690816570" depart="240.00" departLane="0" departPos="31.02" departSpeed="max" arrivalLane="0" arrivalPos="6.52">
        <route edges="-gneE120 -gneE97 -gneE111 -gneE110 -gneE119 -gneE118 -gneE117 -gneE93 gneE97 gneE120"/>
    </vehicle>
    <vehicle id="-flow-random-route-9c9992f7-99d7-4352-82eb-631654671728-5122255902122205606-15-0.2" type="actor-car-2104673688690816570" depart="240.00" departLane="0" departPos="93.59" departSpeed="max" arrivalLane="0" arrivalPos="17.89">
        <route edges="gneE121 -gneE119 -gneE118 -gneE117 -gneE93 -gneE111 gneE112 gneE117 gneE118 gneE119"/>
    </vehicle>
    <vehicle id="-flow-random-route-9dcee881-acb3-40ae-95eb-9ff4da107913-5122255902122205606-20-0.2" type="actor-car-2104673688690816570" depart="240.00" departLane="0" departPos="20.90" departSpeed="max" arrivalLane="0" arrivalPos="62.42">
        <route edges="-gneE121 -gneE120 -gneE97 gneE93 gneE117 gneE118 gneE119 gneE110 gneE112 -gneE93"/>
    </vehicle>
    <vehicle id="-flow-random-route-a2ec5ddb-14b1-4296-8126-4aed1e77ab16-5122255902122205606-29-0.2" type="actor-car-2104673688690816570" depart="240.00" departLane="0" departPos="21.69" departSpeed="max" arrivalLane="0" arrivalPos="165.19">
        <route edges="gneE112 -gneE93 -gneE111 -gneE110 -gneE119 -gneE118 -gneE117 -gneE93 gneE97 gneE120"/>
    </vehicle>
    <vehicle id="-flow-random-route-b9fabd61-218a-4e63-b8c3-7f992886f9b7-5122255902122205606-19-0.2" type="actor-car-2104673688690816570" depart="240.00" departLane="0" departPos="32.55" departSpeed="max" arrivalLane="0" arrivalPos="144.82">
        <route edges="-gneE112 -gneE110 -gneE121 -gneE120"/>
    </vehicle>
    <vehicle id="-flow-random-route-cfeec9b8-5258-424a-98ac-c0c813238996-5122255902122205606-14-0.2" type="actor-car-2104673688690816570" depart="240.00" departLane="0" departPos="65.95" departSpeed="max" arrivalLane="0" arrivalPos="7.81">
        <route edges="gneE112 -gneE93 gneE97 gneE120"/>
    </vehicle>
    <vehicle id="-flow-random-route-d2a1e8d6-ce9c-42fc-92cd-cf421f2283eb-5122255902122205606-23-0.2" type="actor-car-2104673688690816570" depart="240.00" departLane="0" departPos="4.72" departSpeed="max" arrivalLane="0" arrivalPos="26.15">
        <route edges="gneE111 gneE93 -gneE112 -gneE110 -gneE119 -gneE118 -gneE117 -gneE93 -gneE111 gneE112"/>
    </vehicle>
    <vehicle id="-flow-random-route-dcdac94a-7eee-466a-9374-480043c67a7d-5122255902122205606-10-0.2" type="actor-car-2104673688690816570" depart="240.00" departLane="0" departPos="40.83" departSpeed="max" arrivalLane="0" arrivalPos="85.95">
        <route edges="gneE120 gneE121 gneE110 gneE112 -gneE93 -gneE111 -gneE110 -gneE121 -gneE120 -gneE97"/>
    </vehicle>