<?xml version="1.0" encoding="UTF-8"?>

<!-- generated on Sun Sep 20 09:13:40 2020 by Eclipse SUMO duarouter Version 1.6.0
<configuration xmlns:xsi="http://www.w3.org/2001/XMLSchema-instance" xsi:noNamespaceSchemaLocation="http://sumo.dlr.de/xsd/duarouterConfiguration.xsd">

    <input>
        <net-file value="../dataset_public/simple_loop/simpleloop_a/map.net.xml"/>
        <route-files value="/tmp/tmp39oiasg_/trips.trips.xml"/>
    </input>

    <output>
        <output-file value="../dataset_public/simple_loop/simpleloop_a/traffic/30_patient_car.rou.xml"/>
        <alternatives-output value="../dataset_public/simple_loop/simpleloop_a/traffic/30_patient_car.rou.alt.xml"/>
    </output>

    <processing>
        <unsorted-input value="true"/>
        <repair value="true"/>
    </processing>

    <report>
        <error-log value="/tmp/smarts/_duarouter_routing/traffic/30_patient_car.log"/>
        <no-step-log value="true"/>
    </report>

    <random_number>
        <seed value="42"/>
    </random_number>

</configuration>
-->

<routes xmlns:xsi="http://www.w3.org/2001/XMLSchema-instance" xsi:noNamespaceSchemaLocation="http://sumo.dlr.de/xsd/routes_file.xsd">
    <vType id="actor-car--5778196368357177556" minGap="2.50" speedFactor="normc(0.50,0.20,0.20,2.00)" vClass="passenger" impatience="0.50" lcCooperative="0.5" lcImpatience="0" jmDriveAfterYellowTime="1.0" accel="2.6" decel="4.5" sigma="0.5"/>
    <vehicle id="-flow-random-route-1826b6ab-0c25-4e35-a9b7-c9ab372fe872-5844029367197747553-19-0.0" type="actor-car--5778196368357177556" depart="0.00" departLane="1" departPos="178.30" departSpeed="max" arrivalLane="0" arrivalPos="76.86">
        <route edges="edge1 edge0"/>
    </vehicle>
    <vehicle id="-flow-random-route-2c27da64-b151-4ae8-aafa-f885e6211b14-5844029367197747553-12-0.0" type="actor-car--5778196368357177556" depart="0.00" departLane="0" departPos="22.60" departSpeed="max" arrivalLane="1" arrivalPos="52.26">
        <route edges="edge1 edge0"/>
    </vehicle>
    <vehicle id="-flow-random-route-36dc6583-b02e-4244-a8bf-5e2f8a388bfd-5844029367197747553-15-0.0" type="actor-car--5778196368357177556" depart="0.00" departLane="2" departPos="270.85" departSpeed="max" arrivalLane="2" arrivalPos="18.83">
        <route edges="edge1 edge0"/>
    </vehicle>
    <vehicle id="-flow-random-route-36f913fe-cee1-4f29-825f-1d1de38fd27c-5844029367197747553-10-0.0" type="actor-car--5778196368357177556" depart="0.00" departLane="2" departPos="80.08" departSpeed="max" arrivalLane="2" arrivalPos="34.91">
        <route edges="edge0 edge1"/>
    </vehicle>
    <vehicle id="-flow-random-route-3c4608ca-62fb-44f6-aef2-2329cc206a13-5844029367197747553-28-0.0" type="actor-car--5778196368357177556" depart="0.00" departLane="1" departPos="59.61" departSpeed="max" arrivalLane="2" arrivalPos="62.24">
        <route edges="edge0 edge1"/>
    </vehicle>
    <vehicle id="-flow-random-route-41b7a099-20d5-46f8-aae0-3d2ed43d0625-5844029367197747553-3-0.0" type="actor-car--5778196368357177556" depart="0.00" departLane="2" departPos="4.63" departSpeed="max" arrivalLane="2" arrivalPos="481.23">
        <route edges="edge0 edge1"/>
    </vehicle>
    <vehicle id="-flow-random-route-43999150-25f5-4f0c-8724-fb706b5c2570-5844029367197747553-11-0.0" type="actor-car--5778196368357177556" depart="0.00" departLane="0" departPos="49.52" departSpeed="max" arrivalLane="2" arrivalPos="29.81">
        <route edges="edge0 edge1"/>
    </vehicle>
    <vehicle id="-flow-random-route-4563e1a2-1743-458b-8e23-daad52d72326-5844029367197747553-22-0.0" type="actor-car--5778196368357177556" depart="0.00" departLane="1" departPos="149.23" departSpeed="max" arrivalLane="0" arrivalPos="19.06">
        <route edges="edge1 edge0"/>
    </vehicle>
    <vehicle id="-flow-random-route-459e48f0-7ad0-4391-a5a5-657e1d42cc14-5844029367197747553-8-0.0" type="actor-car--5778196368357177556" depart="0.00" departLane="2" departPos="85.17" departSpeed="max" arrivalLane="2" arrivalPos="122.93">
        <route edges="edge0 edge1"/>
    </vehicle>
    <vehicle id="-flow-random-route-48a75eda-b8c2-4eff-8646-b1d6243d3058-5844029367197747553-24-0.0" type="actor-car--5778196368357177556" depart="0.00" departLane="1" departPos="34.30" departSpeed="max" arrivalLane="0" arrivalPos="103.16">
        <route edges="edge0 edge1"/>
    </vehicle>
    <vehicle id="-flow-random-route-4de70627-999b-4e4e-882e-0f8b3f23d4b8-5844029367197747553-5-0.0" type="actor-car--5778196368357177556" depart="0.00" departLane="0" departPos="323.34" departSpeed="max" arrivalLane="1" arrivalPos="84.24">
        <route edges="edge1 edge0"/>
    </vehicle>
    <vehicle id="-flow-random-route-5cd57269-3471-4064-a34f-531bb8d38dd1-5844029367197747553-25-0.0" type="actor-car--5778196368357177556" depart="0.00" departLane="2" departPos="479.09" departSpeed="max" arrivalLane="0" arrivalPos="63.38">
        <route edges="edge1 edge0"/>
    </vehicle>
    <vehicle id="-flow-random-route-6c677a99-56ac-4a45-ac41-18882c043150-5844029367197747553-14-0.0" type="actor-car--5778196368357177556" depart="0.00" departLane="2" departPos="65.15" departSpeed="max" arrivalLane="2" arrivalPos="446.25">
        <route edges="edge0 edge1"/>
    </vehicle>
    <vehicle id="-flow-random-route-6d2e7ca1-9dd0-4618-b94c-d4e01fc5ab1f-5844029367197747553-2-0.0" type="actor-car--5778196368357177556" depart="0.00" departLane="1" departPos="24.37" departSpeed="max" arrivalLane="1" arrivalPos="407.68">
        <route edges="edge0 edge1"/>
    </vehicle>
    <vehicle id="-flow-random-route-738a53a1-4a1f-4744-be6d-1318029d88ba-5844029367197747553-17-0.0" type="actor-car--5778196368357177556" depart="0.00" departLane="1" departPos="18.71" departSpeed="max" arrivalLane="2" arrivalPos="253.27">
        <route edges="edge0 edge1"/>
    </vehicle>
    <vehicle id="-flow-random-route-78313a29-8ee9-45ef-93ff-1287a5bd9b5e-5844029367197747553-7-0.0" type="actor-car--5778196368357177556" depart="0.00" departLane="2" departPos="55.19" departSpeed="max" arrivalLane="1" arrivalPos="154.60">
        <route edges="edge0 edge1"/>
    </vehicle>
    <vehicle id="-flow-random-route-788d1ec3-77b8-46fa-8e8d-d87848551507-5844029367197747553-16-0.0" type="actor-car--5778196368357177556" depart="0.00" departLane="2" departPos="102.99" departSpeed="max" arrivalLane="1" arrivalPos="17.41">
        <route edges="edge1 edge0"/>
    </vehicle>
    <vehicle id="-flow-random-route-8149ab7f-fd0b-46fc-98dc-40c0160fcadf-5844029367197747553-0-0.0" type="actor-car--5778196368357177556" depart="0.00" departLane="2" departPos="452.58" departSpeed="max" arrivalLane="2" arrivalPos="58.73">
        <route edges="edge1 edge0"/>
    </vehicle>
    <vehicle id="-flow-random-route-8547c008-29f5-4818-98a5-87764626d315-5844029367197747553-27-0.0" type="actor-car--5778196368357177556" depart="0.00" departLane="1" departPos="49.98" departSpeed="max" arrivalLane="1" arrivalPos="8.27">
        <route edges="edge1 edge0"/>
    </vehicle>
    <vehicle id="-flow-random-route-902cc587-d84a-4113-a358-ad9b25a494cf-5844029367197747553-4-0.0" type="actor-car--5778196368357177556" depart="0.00" departLane="2" departPos="64.58" departSpeed="max" arrivalLane="2" arrivalPos="98.36">
        <route edges="edge0 edge1"/>
    </vehicle>
    <vehicle id="-flow-random-route-93fdce1a-4431-4eb3-90bc-af589b350c45-5844029367197747553-20-0.0" type="actor-car--5778196368357177556" depart="0.00" departLane="0" departPos="62.98" departSpeed="max" arrivalLane="1" arrivalPos="382.56">
        <route edges="edge0 edge1"/>
    </vehicle>
    <vehicle id="-flow-random-route-9a9142b3-7a36-467a-9076-292629349909-5844029367197747553-9-0.0" type="actor-car--5778196368357177556" depart="0.00" departLane="1" departPos="58.62" departSpeed="max" arrivalLane="2" arrivalPos="21.05">
        <route edges="edge1 edge0"/>
    </vehicle>
    <vehicle id="-flow-random-route-ab523525-33a1-477a-b23b-929d3de10e3d-5844029367197747553-6-0.0" type="actor-car--5778196368357177556" depart="0.00" departLane="2" departPos="195.29" departSpeed="max" arrivalLane="0" arrivalPos="85.27">
        <route edges="edge1 edge0"/>
    </vehicle>
    <vehicle id="-flow-random-route-b13c632d-d9f1-40de-b16b-04fc5cd234b2-5844029367197747553-21-0.0" type="actor-car--5778196368357177556" depart="0.00" departLane="2" departPos="11.31" departSpeed="max" arrivalLane="2" arrivalPos="281.75">
        <route edges="edge0 edge1"/>
    </vehicle>
    <vehicle id="-flow-random-route-b862ac39-fbd3-4c75-a153-1cc078c807ab-5844029367197747553-26-0.0" type="actor-car--5778196368357177556" depart="0.00" departLane="1" departPos="216.02" departSpeed="max" arrivalLane="2" arrivalPos="18.27">
        <route edges="edge1 edge0"/>
    </vehicle>
    <vehicle id="-flow-random-route-bb576519-d20c-4fc9-b84e-5c479fa235fc-5844029367197747553-23-0.0" type="actor-car--5778196368357177556" depart="0.00" departLane="1" departPos="117.08" departSpeed="max" arrivalLane="0" arrivalPos="75.07">
        <route edges="edge1 edge0"/>
    </vehicle>
    <vehicle id="-flow-random-route-d1f1572c-b851-4687-a84f-a8370d3bfc87-5844029367197747553-18-0.0" type="actor-car--5778196368357177556" depart="0.00" departLane="0" departPos="73.93" departSpeed="max" arrivalLane="0" arrivalPos="80.50">
        <route edges="edge0 edge1"/>
    </vehicle>
    <vehicle id="-flow-random-route-d96a5953-e574-4f40-96ca-7a3ea7c8a282-5844029367197747553-29-0.0" type="actor-car--5778196368357177556" depart="0.00" departLane="1" departPos="15.27" departSpeed="max" arrivalLane="1" arrivalPos="18.71">
        <route edges="edge0 edge1"/>
    </vehicle>
    <vehicle id="-flow-random-route-ebad0f64-939e-4e7b-a0ca-bc4867a5d85c-5844029367197747553-1-0.0" type="actor-car--5778196368357177556" depart="0.00" departLane="0" departPos="23.82" departSpeed="max" arrivalLane="0" arrivalPos="427.60">
        <route edges="edge0 edge1"/>
    </vehicle>
    <vehicle id="-flow-random-route-f6feb02a-246f-4cfb-9298-97512e7c2a3a-5844029367197747553-13-0.0" type="actor-car--5778196368357177556" depart="0.00" departLane="0" departPos="247.10" departSpeed="max" arrivalLane="0" arrivalPos="47.99">
        <route edges="edge1 edge0"/>
    </vehicle>
    <vehicle id="-flow-random-route-1826b6ab-0c25-4e35-a9b7-c9ab372fe872-5844029367197747553-19-0.1" type="actor-car--5778196368357177556" depart="120.00" departLane="1" departPos="178.30" departSpeed="max" arrivalLane="0" arrivalPos="76.86">
        <route edges="edge1 edge0"/>
    </vehicle>
    <vehicle id="-flow-random-route-2c27da64-b151-4ae8-aafa-f885e6211b14-5844029367197747553-12-0.1" type="actor-car--5778196368357177556" depart="120.00" departLane="0" departPos="22.60" departSpeed="max" arrivalLane="1" arrivalPos="52.26">
        <route edges="edge1 edge0"/>
    </vehicle>
    <vehicle id="-flow-random-route-36dc6583-b02e-4244-a8bf-5e2f8a388bfd-5844029367197747553-15-0.1" type="actor-car--5778196368357177556" depart="120.00" departLane="2" departPos="270.85" departSpeed="max" arrivalLane="2" arrivalPos="18.83">
        <route edges="edge1 edge0"/>
    </vehicle>
    <vehicle id="-flow-random-route-36f913fe-cee1-4f29-825f-1d1de38fd27c-5844029367197747553-10-0.1" type="actor-car--5778196368357177556" depart="120.00" departLane="2" departPos="80.08" departSpeed="max" arrivalLane="2" arrivalPos="34.91">
        <route edges="edge0 edge1"/>
    </vehicle>
    <vehicle id="-flow-random-route-3c4608ca-62fb-44f6-aef2-2329cc206a13-5844029367197747553-28-0.1" type="actor-car--5778196368357177556" depart="120.00" departLane="1" departPos="59.61" departSpeed="max" arrivalLane="2" arrivalPos="62.24">
        <route edges="edge0 edge1"/>
    </vehicle>
    <vehicle id="-flow-random-route-41b7a099-20d5-46f8-aae0-3d2ed43d0625-5844029367197747553-3-0.1" type="actor-car--5778196368357177556" depart="120.00" departLane="2" departPos="4.63" departSpeed="max" arrivalLane="2" arrivalPos="481.23">
        <route edges="edge0 edge1"/>
    </vehicle>
    <vehicle id="-flow-random-route-43999150-25f5-4f0c-8724-fb706b5c2570-5844029367197747553-11-0.1" type="actor-car--5778196368357177556" depart="120.00" departLane="0" departPos="49.52" departSpeed="max" arrivalLane="2" arrivalPos="29.81">
        <route edges="edge0 edge1"/>
    </vehicle>
    <vehicle id="-flow-random-route-4563e1a2-1743-458b-8e23-daad52d72326-5844029367197747553-22-0.1" type="actor-car--5778196368357177556" depart="120.00" departLane="1" departPos="149.23" departSpeed="max" arrivalLane="0" arrivalPos="19.06">
        <route edges="edge1 edge0"/>
    </vehicle>
    <vehicle id="-flow-random-route-459e48f0-7ad0-4391-a5a5-657e1d42cc14-5844029367197747553-8-0.1" type="actor-car--5778196368357177556" depart="120.00" departLane="2" departPos="85.17" departSpeed="max" arrivalLane="2" arrivalPos="122.93">
        <route edges="edge0 edge1"/>
    </vehicle>
    <vehicle id="-flow-random-route-48a75eda-b8c2-4eff-8646-b1d6243d3058-5844029367197747553-24-0.1" type="actor-car--5778196368357177556" depart="120.00" departLane="1" departPos="34.30" departSpeed="max" arrivalLane="0" arrivalPos="103.16">
        <route edges="edge0 edge1"/>
    </vehicle>
    <vehicle id="-flow-random-route-4de70627-999b-4e4e-882e-0f8b3f23d4b8-5844029367197747553-5-0.1" type="actor-car--5778196368357177556" depart="120.00" departLane="0" departPos="323.34" departSpeed="max" arrivalLane="1" arrivalPos="84.24">
        <route edges="edge1 edge0"/>
    </vehicle>
    <vehicle id="-flow-random-route-5cd57269-3471-4064-a34f-531bb8d38dd1-5844029367197747553-25-0.1" type="actor-car--5778196368357177556" depart="120.00" departLane="2" departPos="479.09" departSpeed="max" arrivalLane="0" arrivalPos="63.38">
        <route edges="edge1 edge0"/>
    </vehicle>
    <vehicle id="-flow-random-route-6c677a99-56ac-4a45-ac41-18882c043150-5844029367197747553-14-0.1" type="actor-car--5778196368357177556" depart="120.00" departLane="2" departPos="65.15" departSpeed="max" arrivalLane="2" arrivalPos="446.25">
        <route edges="edge0 edge1"/>
    </vehicle>
    <vehicle id="-flow-random-route-6d2e7ca1-9dd0-4618-b94c-d4e01fc5ab1f-5844029367197747553-2-0.1" type="actor-car--5778196368357177556" depart="120.00" departLane="1" departPos="24.37" departSpeed="max" arrivalLane="1" arrivalPos="407.68">
        <route edges="edge0 edge1"/>
    </vehicle>
    <vehicle id="-flow-random-route-738a53a1-4a1f-4744-be6d-1318029d88ba-5844029367197747553-17-0.1" type="actor-car--5778196368357177556" depart="120.00" departLane="1" departPos="18.71" departSpeed="max" arrivalLane="2" arrivalPos="253.27">
        <route edges="edge0 edge1"/>
    </vehicle>
    <vehicle id="-flow-random-route-78313a29-8ee9-45ef-93ff-1287a5bd9b5e-5844029367197747553-7-0.1" type="actor-car--5778196368357177556" depart="120.00" departLane="2" departPos="55.19" departSpeed="max" arrivalLane="1" arrivalPos="154.60">
        <route edges="edge0 edge1"/>
    </vehicle>
    <vehicle id="-flow-random-route-788d1ec3-77b8-46fa-8e8d-d87848551507-5844029367197747553-16-0.1" type="actor-car--5778196368357177556" depart="120.00" departLane="2" departPos="102.99" departSpeed="max" arrivalLane="1" arrivalPos="17.41">
        <route edges="edge1 edge0"/>
    </vehicle>
    <vehicle id="-flow-random-route-8149ab7f-fd0b-46fc-98dc-40c0160fcadf-5844029367197747553-0-0.1" type="actor-car--5778196368357177556" depart="120.00" departLane="2" departPos="452.58" departSpeed="max" arrivalLane="2" arrivalPos="58.73">
        <route edges="edge1 edge0"/>
    </vehicle>
    <vehicle id="-flow-random-route-8547c008-29f5-4818-98a5-87764626d315-5844029367197747553-27-0.1" type="actor-car--5778196368357177556" depart="120.00" departLane="1" departPos="49.98" departSpeed="max" arrivalLane="1" arrivalPos="8.27">
        <route edges="edge1 edge0"/>
    </vehicle>
    <vehicle id="-flow-random-route-902cc587-d84a-4113-a358-ad9b25a494cf-5844029367197747553-4-0.1" type="actor-car--5778196368357177556" depart="120.00" departLane="2" departPos="64.58" departSpeed="max" arrivalLane="2" arrivalPos="98.36">
        <route edges="edge0 edge1"/>
    </vehicle>
    <vehicle id="-flow-random-route-93fdce1a-4431-4eb3-90bc-af589b350c45-5844029367197747553-20-0.1" type="actor-car--5778196368357177556" depart="120.00" departLane="0" departPos="62.98" departSpeed="max" arrivalLane="1" arrivalPos="382.56">
        <route edges="edge0 edge1"/>
    </vehicle>
    <vehicle id="-flow-random-route-9a9142b3-7a36-467a-9076-292629349909-5844029367197747553-9-0.1" type="actor-car--5778196368357177556" depart="120.00" departLane="1" departPos="58.62" departSpeed="max" arrivalLane="2" arrivalPos="21.05">
        <route edges="edge1 edge0"/>
    </vehicle>
    <vehicle id="-flow-random-route-ab523525-33a1-477a-b23b-929d3de10e3d-5844029367197747553-6-0.1" type="actor-car--5778196368357177556" depart="120.00" departLane="2" departPos="195.29" departSpeed="max" arrivalLane="0" arrivalPos="85.27">
        <route edges="edge1 edge0"/>
    </vehicle>
    <vehicle id="-flow-random-route-b13c632d-d9f1-40de-b16b-04fc5cd234b2-5844029367197747553-21-0.1" type="actor-car--5778196368357177556" depart="120.00" departLane="2" departPos="11.31" departSpeed="max" arrivalLane="2" arrivalPos="281.75">
        <route edges="edge0 edge1"/>
    </vehicle>
    <vehicle id="-flow-random-route-b862ac39-fbd3-4c75-a153-1cc078c807ab-5844029367197747553-26-0.1" type="actor-car--5778196368357177556" depart="120.00" departLane="1" departPos="216.02" departSpeed="max" arrivalLane="2" arrivalPos="18.27">
        <route edges="edge1 edge0"/>
    </vehicle>
    <vehicle id="-flow-random-route-bb576519-d20c-4fc9-b84e-5c479fa235fc-5844029367197747553-23-0.1" type="actor-car--5778196368357177556" depart="120.00" departLane="1" departPos="117.08" departSpeed="max" arrivalLane="0" arrivalPos="75.07">
        <route edges="edge1 edge0"/>
    </vehicle>
    <vehicle id="-flow-random-route-d1f1572c-b851-4687-a84f-a8370d3bfc87-5844029367197747553-18-0.1" type="actor-car--5778196368357177556" depart="120.00" departLane="0" departPos="73.93" departSpeed="max" arrivalLane="0" arrivalPos="80.50">
        <route edges="edge0 edge1"/>
    </vehicle>
    <vehicle id="-flow-random-route-d96a5953-e574-4f40-96ca-7a3ea7c8a282-5844029367197747553-29-0.1" type="actor-car--5778196368357177556" depart="120.00" departLane="1" departPos="15.27" departSpeed="max" arrivalLane="1" arrivalPos="18.71">
        <route edges="edge0 edge1"/>
    </vehicle>
    <vehicle id="-flow-random-route-ebad0f64-939e-4e7b-a0ca-bc4867a5d85c-5844029367197747553-1-0.1" type="actor-car--5778196368357177556" depart="120.00" departLane="0" departPos="23.82" departSpeed="max" arrivalLane="0" arrivalPos="427.60">
        <route edges="edge0 edge1"/>
    </vehicle>
    <vehicle id="-flow-random-route-f6feb02a-246f-4cfb-9298-97512e7c2a3a-5844029367197747553-13-0.1" type="actor-car--5778196368357177556" depart="120.00" departLane="0" departPos="247.10" departSpeed="max" arrivalLane="0" arrivalPos="47.99">
        <route edges="edge1 edge0"/>
    </vehicle>
    <vehicle id="-flow-random-route-1826b6ab-0c25-4e35-a9b7-c9ab372fe872-5844029367197747553-19-0.2" type="actor-car--5778196368357177556" depart="240.00" departLane="1" departPos="178.30" departSpeed="max" arrivalLane="0" arrivalPos="76.86">
        <route edges="edge1 edge0"/>
    </vehicle>
    <vehicle id="-flow-random-route-2c27da64-b151-4ae8-aafa-f885e6211b14-5844029367197747553-12-0.2" type="actor-car--5778196368357177556" depart="240.00" departLane="0" departPos="22.60" departSpeed="max" arrivalLane="1" arrivalPos="52.26">
        <route edges="edge1 edge0"/>
    </vehicle>
    <vehicle id="-flow-random-route-36dc6583-b02e-4244-a8bf-5e2f8a388bfd-5844029367197747553-15-0.2" type="actor-car--5778196368357177556" depart="240.00" departLane="2" departPos="270.85" departSpeed="max" arrivalLane="2" arrivalPos="18.83">
        <route edges="edge1 edge0"/>
    </vehicle>
    <vehicle id="-flow-random-route-36f913fe-cee1-4f29-825f-1d1de38fd27c-5844029367197747553-10-0.2" type="actor-car--5778196368357177556" depart="240.00" departLane="2" departPos="80.08" departSpeed="max" arrivalLane="2" arrivalPos="34.91">
        <route edges="edge0 edge1"/>
    </vehicle>
    <vehicle id="-flow-random-route-3c4608ca-62fb-44f6-aef2-2329cc206a13-5844029367197747553-28-0.2" type="actor-car--5778196368357177556" depart="240.00" departLane="1" departPos="59.61" departSpeed="max" arrivalLane="2" arrivalPos="62.24">
        <route edges="edge0 edge1"/>
    </vehicle>
    <vehicle id="-flow-random-route-41b7a099-20d5-46f8-aae0-3d2ed43d0625-5844029367197747553-3-0.2" type="actor-car--5778196368357177556" depart="240.00" departLane="2" departPos="4.63" departSpeed="max" arrivalLane="2" arrivalPos="481.23">
        <route edges="edge0 edge1"/>
    </vehicle>
    <vehicle id="-flow-random-route-43999150-25f5-4f0c-8724-fb706b5c2570-5844029367197747553-11-0.2" type="actor-car--5778196368357177556" depart="240.00" departLane="0" departPos="49.52" departSpeed="max" arrivalLane="2" arrivalPos="29.81">
        <route edges="edge0 edge1"/>
    </vehicle>
    <vehicle id="-flow-random-route-4563e1a2-1743-458b-8e23-daad52d72326-5844029367197747553-22-0.2" type="actor-car--5778196368357177556" depart="240.00" departLane="1" departPos="149.23" departSpeed="max" arrivalLane="0" arrivalPos="19.06">
        <route edges="edge1 edge0"/>
    </vehicle>
    <vehicle id="-flow-random-route-459e48f0-7ad0-4391-a5a5-657e1d42cc14-5844029367197747553-8-0.2" type="actor-car--5778196368357177556" depart="240.00" departLane="2" departPos="85.17" departSpeed="max" arrivalLane="2" arrivalPos="122.93">
        <route edges="edge0 edge1"/>
    </vehicle>
    <vehicle id="-flow-random-route-48a75eda-b8c2-4eff-8646-b1d6243d3058-5844029367197747553-24-0.2" type="actor-car--5778196368357177556" depart="240.00" departLane="1" departPos="34.30" departSpeed="max" arrivalLane="0" arrivalPos="103.16">
        <route edges="edge0 edge1"/>
    </vehicle>
    <vehicle id="-flow-random-route-4de70627-999b-4e4e-882e-0f8b3f23d4b8-5844029367197747553-5-0.2" type="actor-car--5778196368357177556" depart="240.00" departLane="0" departPos="323.34" departSpeed="max" arrivalLane="1" arrivalPos="84.24">
        <route edges="edge1 edge0"/>
    </vehicle>
    <vehicle id="-flow-random-route-5cd57269-3471-4064-a34f-531bb8d38dd1-5844029367197747553-25-0.2" type="actor-car--5778196368357177556" depart="240.00" departLane="2" departPos="479.09" departSpeed="max" arrivalLane="0" arrivalPos="63.38">
        <route edges="edge1 edge0"/>
    </vehicle>
    <vehicle id="-flow-random-route-6c677a99-56ac-4a45-ac41-18882c043150-5844029367197747553-14-0.2" type="actor-car--5778196368357177556" depart="240.00" departLane="2" departPos="65.15" departSpeed="max" arrivalLane="2" arrivalPos="446.25">
        <route edges="edge0 edge1"/>
    </vehicle>
    <vehicle id="-flow-random-route-6d2e7ca1-9dd0-4618-b94c-d4e01fc5ab1f-5844029367197747553-2-0.2" type="actor-car--5778196368357177556" depart="240.00" departLane="1" departPos="24.37" departSpeed="max" arrivalLane="1" arrivalPos="407.68">
        <route edges="edge0 edge1"/>
    </vehicle>
    <vehicle id="-flow-random-route-738a53a1-4a1f-4744-be6d-1318029d88ba-5844029367197747553-17-0.2" type="actor-car--5778196368357177556" depart="240.00" departLane="1" departPos="18.71" departSpeed="max" arrivalLane="2" arrivalPos="253.27">
        <route edges="edge0 edge1"/>
    </vehicle>
    <vehicle id="-flow-random-route-78313a29-8ee9-45ef-93ff-1287a5bd9b5e-5844029367197747553-7-0.2" type="actor-car--5778196368357177556" depart="240.00" departLane="2" departPos="55.19" departSpeed="max" arrivalLane="1" arrivalPos="154.60">
        <route edges="edge0 edge1"/>
    </vehicle>
    <vehicle id="-flow-random-route-788d1ec3-77b8-46fa-8e8d-d87848551507-5844029367197747553-16-0.2" type="actor-car--5778196368357177556" depart="240.00" departLane="2" departPos="102.99" departSpeed="max" arrivalLane="1" arrivalPos="17.41">
        <route edges="edge1 edge0"/>
    </vehicle>
    <vehicle id="-flow-random-route-8149ab7f-fd0b-46fc-98dc-40c0160fcadf-5844029367197747553-0-0.2" type="actor-car--5778196368357177556" depart="240.00" departLane="2" departPos="452.58" departSpeed="max" arrivalLane="2" arrivalPos="58.73">
        <route edges="edge1 edge0"/>
    </vehicle>
    <vehicle id="-flow-random-route-8547c008-29f5-4818-98a5-87764626d315-5844029367197747553-27-0.2" type="actor-car--5778196368357177556" depart="240.00" departLane="1" departPos="49.98" departSpeed="max" arrivalLane="1" arrivalPos="8.27">
        <route edges="edge1 edge0"/>
    </vehicle>
    <vehicle id="-flow-random-route-902cc587-d84a-4113-a358-ad9b25a494cf-5844029367197747553-4-0.2" type="actor-car--5778196368357177556" depart="240.00" departLane="2" departPos="64.58" departSpeed="max" arrivalLane="2" arrivalPos="98.36">
        <route edges="edge0 edge1"/>
    </vehicle>
    <vehicle id="-flow-random-route-93fdce1a-4431-4eb3-90bc-af589b350c45-5844029367197747553-20-0.2" type="actor-car--5778196368357177556" depart="240.00" departLane="0" departPos="62.98" departSpeed="max" arrivalLane="1" arrivalPos="382.56">
        <route edges="edge0 edge1"/>
    </vehicle>
    <vehicle id="-flow-random-route-9a9142b3-7a36-467a-9076-292629349909-5844029367197747553-9-0.2" type="actor-car--5778196368357177556" depart="240.00" departLane="1" departPos="58.62" departSpeed="max" arrivalLane="2" arrivalPos="21.05">
        <route edges="edge1 edge0"/>
    </vehicle>
    <vehicle id="-flow-random-route-ab523525-33a1-477a-b23b-929d3de10e3d-5844029367197747553-6-0.2" type="actor-car--5778196368357177556" depart="240.00" departLane="2" departPos="195.29" departSpeed="max" arrivalLane="0" arrivalPos="85.27">
        <route edges="edge1 edge0"/>
    </vehicle>
    <vehicle id="-flow-random-route-b13c632d-d9f1-40de-b16b-04fc5cd234b2-5844029367197747553-21-0.2" type="actor-car--5778196368357177556" depart="240.00" departLane="2" departPos="11.31" departSpeed="max" arrivalLane="2" arrivalPos="281.75">
        <route edges="edge0 edge1"/>
    </vehicle>
    <vehicle id="-flow-random-route-b862ac39-fbd3-4c75-a153-1cc078c807ab-5844029367197747553-26-0.2" type="actor-car--5778196368357177556" depart="240.00" departLane="1" departPos="216.02" departSpeed="max" arrivalLane="2" arrivalPos="18.27">
        <route edges="edge1 edge0"/>
    </vehicle>
    <vehicle id="-flow-random-route-bb576519-d20c-4fc9-b84e-5c479fa235fc-5844029367197747553-23-0.2" type="actor-car--5778196368357177556" depart="240.00" departLane="1" departPos="117.08" departSpeed="max" arrivalLane="0" arrivalPos="75.07">
        <route edges="edge1 edge0"/>
    </vehicle>
    <vehicle id="-flow-random-route-d1f1572c-b851-4687-a84f-a8370d3bfc87-5844029367197747553-18-0.2" type="actor-car--5778196368357177556" depart="240.00" departLane="0" departPos="73.93" departSpeed="max" arrivalLane="0" arrivalPos="80.50">
        <route edges="edge0 edge1"/>
    </vehicle>
    <vehicle id="-flow-random-route-d96a5953-e574-4f40-96ca-7a3ea7c8a282-5844029367197747553-29-0.2" type="actor-car--5778196368357177556" depart="240.00" departLane="1" departPos="15.27" departSpeed="max" arrivalLane="1" arrivalPos="18.71">
        <route edges="edge0 edge1"/>
    </vehicle>
    <vehicle id="-flow-random-route-ebad0f64-939e-4e7b-a0ca-bc4867a5d85c-5844029367197747553-1-0.2" type="actor-car--5778196368357177556" depart="240.00" departLane="0" departPos="23.82" departSpeed="max" arrivalLane="0" arrivalPos="427.60">
        <route edges="edge0 edge1"/>
    </vehicle>
    <vehicle id="-flow-random-route-f6feb02a-246f-4cfb-9298-97512e7c2a3a-5844029367197747553-13-0.2" type="actor-car--5778196368357177556" depart="240.00" departLane="0" departPos="247.10" departSpeed="max" arrivalLane="0" arrivalPos="47.99">
        <route edges="edge1 edge0"/>
    </vehicle>
    <vehicle id="-flow-random-route-1826b6ab-0c25-4e35-a9b7-c9ab372fe872-5844029367197747553-19-0.3" type="actor-car--5778196368357177556" depart="360.00" departLane="1" departPos="178.30" departSpeed="max" arrivalLane="0" arrivalPos="76.86">
        <route edges="edge1 edge0"/>
    </vehicle>
    <vehicle id="-flow-random-route-2c27da64-b151-4ae8-aafa-f885e6211b14-5844029367197747553-12-0.3" type="actor-car--5778196368357177556" depart="360.00" departLane="0" departPos="22.60" departSpeed="max" arrivalLane="1" arrivalPos="52.26">
        <route edges="edge1 edge0"/>
    </vehicle>
    <vehicle id="-flow-random-route-36dc6583-b02e-4244-a8bf-5e2f8a388bfd-5844029367197747553-15-0.3" type="actor-car--5778196368357177556" depart="360.00" departLane="2" departPos="270.85" departSpeed="max" arrivalLane="2" arrivalPos="18.83">
        <route edges="edge1 edge0"/>
    </vehicle>
    <vehicle id="-flow-random-route-36f913fe-cee1-4f29-825f-1d1de38fd27c-5844029367197747553-10-0.3" type="actor-car--5778196368357177556" depart="360.00" departLane="2" departPos="80.08" departSpeed="max" arrivalLane="2" arrivalPos="34.91">
        <route edges="edge0 edge1"/>
    </vehicle>
    <vehicle id="-flow-random-route-3c4608ca-62fb-44f6-aef2-2329cc206a13-5844029367197747553-28-0.3" type="actor-car--5778196368357177556" depart="360.00" departLane="1" departPos="59.61" departSpeed="max" arrivalLane="2" arrivalPos="62.24">
        <route edges="edge0 edge1"/>
    </vehicle>
    <vehicle id="-flow-random-route-41b7a099-20d5-46f8-aae0-3d2ed43d0625-5844029367197747553-3-0.3" type="actor-car--5778196368357177556" depart="360.00" departLane="2" departPos="4.63" departSpeed="max" arrivalLane="2" arrivalPos="481.23">
        <route edges="edge0 edge1"/>
    </vehicle>
    <vehicle id="-flow-random-route-43999150-25f5-4f0c-8724-fb706b5c2570-5844029367197747553-11-0.3" type="actor-car--5778196368357177556" depart="360.00" departLane="0" departPos="49.52" departSpeed="max" arrivalLane="2" arrivalPos="29.81">
        <route edges="edge0 edge1"/>
    </vehicle>