<?xml version="1.0" encoding="UTF-8"?>

<!-- generated on 2020年08月10日 星期一 20时21分02秒 by Eclipse SUMO netedit Version 1.6.0
<configuration xmlns:xsi="http://www.w3.org/2001/XMLSchema-instance" xsi:noNamespaceSchemaLocation="http://sumo.dlr.de/xsd/netconvertConfiguration.xsd">

    <input>
        <sumo-net-file value="/home/illion/workspace/projects/ming/SMARTS/dai/track1/dataset_evaluation/all_loop/all_loop_a/map.net.xml"/>
    </input>

    <output>
        <output-file value="/home/illion/workspace/projects/ming/SMARTS/dai/track1/dataset_evaluation/all_loop/all_loop_a2/map.net.xml"/>
    </output>

    <processing>
        <geometry.min-radius.fix.railways value="false"/>
        <geometry.max-grade.fix value="false"/>
        <offset.disable-normalization value="true"/>
        <lefthand value="false"/>
    </processing>

    <junctions>
        <no-turnarounds value="true"/>
        <junctions.corner-detail value="5"/>
        <junctions.limit-turn-speed value="5.5"/>
        <rectangular-lane-cut value="false"/>
    </junctions>

    <pedestrian>
        <walkingareas value="false"/>
    </pedestrian>

    <report>
        <aggregate-warnings value="5"/>
    </report>

</configuration>
-->

<net version="1.6" junctionCornerDetail="5" limitTurnSpeed="5.50" xmlns:xsi="http://www.w3.org/2001/XMLSchema-instance" xsi:noNamespaceSchemaLocation="http://sumo.dlr.de/xsd/net_file.xsd">

    <location netOffset="-773483.17,-42354.99" convBoundary="27.71,20.64,327.41,284.87" origBoundary="-174.542980,0.382844,-174.541564,0.384115" projParameter="+proj=utm +zone=1 +ellps=WGS84 +datum=WGS84 +units=m +no_defs"/>

    <type id="highway.bridleway" priority="1" numLanes="1" speed="2.78" allow="pedestrian" oneway="1" width="2.00"/>
    <type id="highway.bus_guideway" priority="1" numLanes="1" speed="27.78" allow="bus" oneway="1"/>
    <type id="highway.cycleway" priority="1" numLanes="1" speed="8.33" allow="bicycle" oneway="0" width="1.00"/>
    <type id="highway.footway" priority="1" numLanes="1" speed="2.78" allow="pedestrian" oneway="1" width="2.00"/>
    <type id="highway.ford" priority="1" numLanes="1" speed="2.78" allow="army" oneway="0"/>
    <type id="highway.living_street" priority="2" numLanes="1" speed="2.78" disallow="tram rail_urban rail rail_electric ship" oneway="0"/>
    <type id="highway.motorway" priority="14" numLanes="2" speed="39.44" allow="private emergency authority army vip passenger hov taxi bus coach delivery truck trailer motorcycle evehicle custom1 custom2" oneway="1"/>
    <type id="highway.motorway_link" priority="9" numLanes="1" speed="22.22" allow="private emergency authority army vip passenger hov taxi bus coach delivery truck trailer motorcycle evehicle custom1 custom2" oneway="1"/>
    <type id="highway.path" priority="1" numLanes="1" speed="2.78" allow="pedestrian bicycle" oneway="1" width="2.00"/>
    <type id="highway.pedestrian" priority="1" numLanes="1" speed="2.78" allow="pedestrian" oneway="1" width="2.00"/>
    <type id="highway.primary" priority="12" numLanes="2" speed="27.78" disallow="tram rail_urban rail rail_electric ship" oneway="0"/>
    <type id="highway.primary_link" priority="7" numLanes="1" speed="22.22" disallow="tram rail_urban rail rail_electric ship" oneway="0"/>
    <type id="highway.raceway" priority="15" numLanes="2" speed="83.33" allow="vip" oneway="0"/>
    <type id="highway.residential" priority="3" numLanes="1" speed="13.89" disallow="tram rail_urban rail rail_electric ship" oneway="0"/>
    <type id="highway.secondary" priority="11" numLanes="2" speed="27.78" disallow="tram rail_urban rail rail_electric ship" oneway="0"/>
    <type id="highway.secondary_link" priority="6" numLanes="1" speed="22.22" disallow="tram rail_urban rail rail_electric ship" oneway="0"/>
    <type id="highway.service" priority="1" numLanes="1" speed="5.56" allow="pedestrian delivery bicycle" oneway="0"/>
    <type id="highway.stairs" priority="1" numLanes="1" speed="1.39" allow="pedestrian" oneway="1" width="2.00"/>
    <type id="highway.step" priority="1" numLanes="1" speed="1.39" allow="pedestrian" oneway="1" width="2.00"/>
    <type id="highway.steps" priority="1" numLanes="1" speed="1.39" allow="pedestrian" oneway="1" width="2.00"/>
    <type id="highway.tertiary" priority="10" numLanes="1" speed="22.22" disallow="tram rail_urban rail rail_electric ship" oneway="0"/>
    <type id="highway.tertiary_link" priority="5" numLanes="1" speed="22.22" disallow="tram rail_urban rail rail_electric ship" oneway="0"/>
    <type id="highway.track" priority="1" numLanes="1" speed="5.56" disallow="tram rail_urban rail rail_electric ship" oneway="0"/>
    <type id="highway.trunk" priority="13" numLanes="2" speed="27.78" disallow="pedestrian bicycle tram rail_urban rail rail_electric ship" oneway="0"/>
    <type id="highway.trunk_link" priority="8" numLanes="1" speed="22.22" disallow="pedestrian bicycle tram rail_urban rail rail_electric ship" oneway="0"/>
    <type id="highway.unclassified" priority="4" numLanes="1" speed="13.89" disallow="tram rail_urban rail rail_electric ship" oneway="0"/>
    <type id="highway.unsurfaced" priority="1" numLanes="1" speed="8.33" disallow="tram rail_urban rail rail_electric ship" oneway="0"/>
    <type id="railway.light_rail" priority="19" numLanes="1" speed="27.78" allow="rail_urban" oneway="1"/>
    <type id="railway.preserved" priority="16" numLanes="1" speed="27.78" allow="rail" oneway="1"/>
    <type id="railway.rail" priority="20" numLanes="1" speed="83.33" allow="rail rail_electric" oneway="1"/>
    <type id="railway.subway" priority="18" numLanes="1" speed="27.78" allow="rail_urban" oneway="1"/>
    <type id="railway.tram" priority="17" numLanes="1" speed="13.89" allow="tram" oneway="1"/>

    <edge id=":gneJ108_0" function="internal">
        <lane id=":gneJ108_0_0" index="0" speed="13.89" length="1.72" shape="136.24,54.29 135.99,54.30 135.82,54.33 135.65,54.39 135.43,54.52"/>
        <lane id=":gneJ108_0_1" index="1" speed="7.54" length="1.72" shape="136.22,51.09 135.46,51.11 134.94,51.19 134.45,51.40 133.79,51.77"/>
    </edge>
    <edge id=":gneJ109_0" function="internal">
        <lane id=":gneJ109_0_0" index="0" speed="6.50" length="9.03" shape="325.34,198.04 324.98,195.59 323.92,193.85 322.16,192.81 319.71,192.48"/>
    </edge>
    <edge id=":gneJ109_1" function="internal">
        <lane id=":gneJ109_1_0" index="0" speed="13.89" length="14.37" shape="328.50,183.65 328.54,198.02"/>
    </edge>
    <edge id=":gneJ109_2" function="internal">
        <lane id=":gneJ109_2_0" index="0" speed="7.35" length="8.36" shape="325.30,183.65 324.95,187.49 323.90,190.25 322.78,191.32"/>
    </edge>
    <edge id=":gneJ109_4" function="internal">
        <lane id=":gneJ109_4_0" index="0" speed="7.35" length="3.37" shape="322.78,191.32 322.15,191.91 319.71,192.48"/>
    </edge>
    <edge id=":gneJ109_3" function="internal">
        <lane id=":gneJ109_3_0" index="0" speed="8.00" length="14.20" shape="319.68,189.28 323.54,189.80 326.30,191.43 327.97,194.17 328.54,198.02"/>
    </edge>
    <edge id=":gneJ112_0" function="internal">
        <lane id=":gneJ112_0_0" index="0" speed="6.58" length="9.13" shape="223.24,193.28 220.77,193.65 218.99,194.72 217.92,196.49 217.54,198.95"/>
    </edge>
    <edge id=":gneJ112_1" function="internal">
        <lane id=":gneJ112_1_0" index="0" speed="13.89" length="14.50" shape="223.24,193.28 208.75,193.25"/>
    </edge>
    <edge id=":gneJ112_2" function="internal">
        <lane id=":gneJ112_2_0" index="0" speed="7.99" length="14.24" shape="223.24,193.28 219.38,192.76 216.62,191.12 214.96,188.37 214.40,184.50"/>
    </edge>
    <edge id=":gneJ112_3" function="internal">
        <lane id=":gneJ112_3_0" index="0" speed="6.50" length="9.05" shape="217.60,184.49 217.95,186.96 219.01,188.71 220.76,189.75 223.22,190.08"/>
    </edge>
    <edge id=":gneJ112_4" function="internal">
        <lane id=":gneJ112_4_0" index="0" speed="13.89" length="14.45" shape="217.60,184.49 217.54,198.95"/>
    </edge>
    <edge id=":gneJ112_5" function="internal">
        <lane id=":gneJ112_5_0" index="0" speed="7.98" length="5.99" shape="217.60,184.49 217.05,188.37 215.98,190.15"/>
    </edge>
    <edge id=":gneJ112_12" function="internal">
        <lane id=":gneJ112_12_0" index="0" speed="7.98" length="8.25" shape="215.98,190.15 215.39,191.12 212.62,192.74 208.75,193.25"/>
    </edge>
    <edge id=":gneJ112_6" function="internal">
        <lane id=":gneJ112_6_0" index="0" speed="6.48" length="9.03" shape="208.79,190.05 211.24,189.73 213.00,188.70 214.05,186.95 214.40,184.50"/>
    </edge>
    <edge id=":gneJ112_7" function="internal">
        <lane id=":gneJ112_7_0" index="0" speed="13.89" length="14.43" shape="208.79,190.05 223.22,190.08"/>
    </edge>
    <edge id=":gneJ112_8" function="internal">
        <lane id=":gneJ112_8_0" index="0" speed="8.02" length="14.22" shape="208.79,190.05 212.65,190.65 215.39,192.33 217.02,195.10 217.54,198.95"/>
    </edge>
    <edge id=":gneJ112_9" function="internal">
        <lane id=":gneJ112_9_0" index="0" speed="6.53" length="9.07" shape="214.34,198.92 214.01,196.46 212.97,194.70 211.21,193.63 208.75,193.25"/>
    </edge>
    <edge id=":gneJ112_10" function="internal">
        <lane id=":gneJ112_10_0" index="0" speed="13.89" length="14.42" shape="214.34,198.92 214.40,184.50"/>
    </edge>
    <edge id=":gneJ112_11" function="internal">
        <lane id=":gneJ112_11_0" index="0" speed="8.06" length="5.87" shape="214.34,198.92 214.93,195.08 215.96,193.38"/>
    </edge>
    <edge id=":gneJ112_13" function="internal">
        <lane id=":gneJ112_13_0" index="0" speed="8.06" length="8.35" shape="215.96,193.38 216.60,192.33 219.37,190.66 223.22,190.08"/>
    </edge>
    <edge id=":gneJ113_0" function="internal">
        <lane id=":gneJ113_0_0" index="0" speed="6.50" length="9.03" shape="214.21,59.37 213.86,56.92 212.80,55.17 211.05,54.13 208.59,53.80"/>
    </edge>
    <edge id=":gneJ113_1" function="internal">
        <lane id=":gneJ113_1_0" index="0" speed="6.96" length="10.42" shape="223.03,52.10 220.57,52.57 218.81,53.93 217.76,56.20 217.41,59.37"/>
    </edge>
    <edge id=":gneJ113_2" function="internal">
        <lane id=":gneJ113_2_0" index="0" speed="13.89" length="14.55" shape="223.03,52.10 219.68,51.87 216.65,51.34 213.19,50.82 208.57,50.60"/>
    </edge>
    <edge id=":gneJ113_3" function="internal">
        <lane id=":gneJ113_3_0" index="0" speed="13.89" length="14.35" shape="217.46,45.01 217.41,59.37"/>
    </edge>
    <edge id=":gneJ113_4" function="internal">
        <lane id=":gneJ113_4_0" index="0" speed="6.56" length="9.08" shape="214.26,44.99 213.89,47.43 212.82,49.18 211.04,50.23 208.57,50.60"/>
    </edge>
    <edge id=":gneJ115_0" function="internal">
        <lane id=":gneJ115_0_0" index="0" speed="6.49" length="9.03" shape="82.91,191.72 80.45,192.04 78.70,193.07 77.64,194.81 77.28,197.26"/>
    </edge>
    <edge id=":gneJ115_1" function="internal">
        <lane id=":gneJ115_1_0" index="0" speed="13.89" length="14.94" shape="82.91,191.72 79.59,191.18 76.59,190.03 73.15,188.87 68.46,188.26"/>
    </edge>
    <edge id=":gneJ115_2" function="internal">
        <lane id=":gneJ115_2_0" index="0" speed="8.07" length="14.30" shape="82.91,191.72 79.06,191.12 76.30,189.42 74.64,186.63 74.08,182.75"/>
    </edge>
    <edge id=":gneJ115_3" function="internal">
        <lane id=":gneJ115_3_0" index="0" speed="6.59" length="9.20" shape="77.28,182.74 77.64,185.24 78.71,187.04 80.48,188.13 82.95,188.52"/>
    </edge>
    <edge id=":gneJ115_4" function="internal">
        <lane id=":gneJ115_4_0" index="0" speed="13.89" length="14.52" shape="77.28,182.74 77.28,197.26"/>
    </edge>
    <edge id=":gneJ115_5" function="internal">
        <lane id=":gneJ115_5_0" index="0" speed="7.27" length="4.09" shape="77.28,182.74 76.74,185.23 75.68,186.35"/>
    </edge>
    <edge id=":gneJ115_9" function="internal">
        <lane id=":gneJ115_9_0" index="0" speed="7.27" length="7.69" shape="75.68,186.35 75.08,186.98 72.32,187.99 68.46,188.26"/>
    </edge>
    <edge id=":gneJ115_6" function="internal">
        <lane id=":gneJ115_6_0" index="0" speed="6.62" length="9.23" shape="74.08,197.26 73.73,194.77 72.66,192.98 70.88,191.87 68.38,191.46"/>
    </edge>
    <edge id=":gneJ115_7" function="internal">
        <lane id=":gneJ115_7_0" index="0" speed="13.89" length="14.51" shape="74.08,197.26 74.08,182.75"/>
    </edge>
    <edge id=":gneJ115_8" function="internal">
        <lane id=":gneJ115_8_0" index="0" speed="7.98" length="5.90" shape="74.08,197.26 74.64,193.39 75.68,191.68"/>
    </edge>
    <edge id=":gneJ115_10" function="internal">
        <lane id=":gneJ115_10_0" index="0" speed="7.98" length="8.33" shape="75.68,191.68 76.31,190.65 79.08,189.02 82.95,188.52"/>
    </edge>
    <edge id=":gneJ118_0" function="internal">
        <lane id=":gneJ118_0_0" index="0" speed="9.51" length="1.22" shape="31.15,187.66 30.73,187.32 30.45,187.07 30.23,186.77 29.94,186.31"/>
        <lane id=":gneJ118_0_1" index="1" speed="13.89" length="1.22" shape="33.08,185.10 32.94,184.99 32.85,184.91 32.78,184.81 32.68,184.66"/>
    </edge>
    <edge id=":gneJ148_0" function="internal">
        <lane id=":gneJ148_0_0" index="0" speed="8.51" length="2.07" shape="324.40,281.37 323.97,281.80 323.64,282.07 323.26,282.27 322.69,282.49"/>
    </edge>
    <edge id=":gneJ148_1" function="internal">
        <lane id=":gneJ148_1_0" index="0" speed="13.89" length="0.69" shape="321.54,279.51 321.73,279.43 321.86,279.37 321.97,279.28 322.11,279.13"/>
    </edge>
    <edge id=":gneJ155_0" function="internal">
        <lane id=":gneJ155_0_0" index="0" speed="13.89" length="14.36" shape="222.36,284.89 208.00,285.01"/>
    </edge>
    <edge id=":gneJ155_1" function="internal">
        <lane id=":gneJ155_1_0" index="0" speed="7.98" length="5.89" shape="222.36,284.89 218.49,284.35 216.79,283.33"/>
    </edge>
    <edge id=":gneJ155_6" function="internal">
        <lane id=":gneJ155_6_0" index="0" speed="7.98" length="8.36" shape="216.79,283.33 215.73,282.70 214.10,279.94 213.58,276.06"/>
    </edge>
    <edge id=":gneJ155_2" function="internal">
        <lane id=":gneJ155_2_0" index="0" speed="6.48" length="9.03" shape="216.78,276.09 217.11,278.55 218.15,280.30 219.89,281.35 222.35,281.69"/>
    </edge>
    <edge id=":gneJ155_3" function="internal">
        <lane id=":gneJ155_3_0" index="0" speed="8.07" length="14.20" shape="216.78,276.09 216.20,279.95 214.54,282.72 211.81,284.41 208.00,285.01"/>
    </edge>
    <edge id=":gneJ155_4" function="internal">
        <lane id=":gneJ155_4_0" index="0" speed="6.59" length="9.12" shape="207.96,281.81 210.40,281.42 212.15,280.34 213.21,278.55 213.58,276.06"/>
    </edge>
    <edge id=":gneJ155_5" function="internal">
        <lane id=":gneJ155_5_0" index="0" speed="13.89" length="14.39" shape="207.96,281.81 222.35,281.69"/>
    </edge>
    <edge id=":gneJ167_0" function="internal">
        <lane id=":gneJ167_0_0" index="0" speed="9.36" length="1.85" shape="79.86,283.22 79.38,282.95 79.07,282.74 78.79,282.48 78.43,282.06"/>
    </edge>
    <edge id=":gneJ167_1" function="internal">
        <lane id=":gneJ167_1_0" index="0" speed="13.89" length="0.62" shape="80.88,280.00 81.00,280.14 81.09,280.23 81.20,280.30 81.36,280.39"/>
    </edge>
    <edge id=":gneJ172_0" function="internal">
        <lane id=":gneJ172_0_0" index="0" speed="13.89" length="14.47" shape="208.73,19.61 223.22,19.40"/>
        <lane id=":gneJ172_0_1" index="1" speed="13.89" length="14.47" shape="208.80,22.81 223.24,22.60"/>
    </edge>
    <edge id=":gneJ172_2" function="internal">
        <lane id=":gneJ172_2_0" index="0" speed="7.26" length="11.79" shape="208.80,22.81 212.67,23.07 215.43,24.09 217.08,25.84 217.61,28.35"/>
    </edge>
    <edge id=":gneJ172_3" function="internal">
        <lane id=":gneJ172_3_0" index="0" speed="6.44" length="9.03" shape="208.80,22.81 211.27,23.10 213.03,24.12 214.07,25.86 214.41,28.32"/>
    </edge>
    <edge id=":gneJ173_0" function="internal">
        <lane id=":gneJ173_0_0" index="0" speed="6.75" length="2.45" shape="325.19,22.54 326.11,23.11 326.67,23.62 327.04,24.28 327.39,25.31"/>
        <lane id=":gneJ173_0_1" index="1" speed="4.26" length="2.45" shape="323.59,25.32 323.90,25.50 324.09,25.68 324.21,25.90 324.33,26.24"/>
    </edge>
    <edge id=":gneJ174_0" function="internal">
        <lane id=":gneJ174_0_0" index="0" speed="13.89" length="14.15" shape="328.69,45.10 328.50,59.21"/>
        <lane id=":gneJ174_0_1" index="1" speed="13.89" length="14.15" shape="325.49,45.02 325.30,59.21"/>
    </edge>
    <edge id=":gneJ174_2" function="internal">
        <lane id=":gneJ174_2_0" index="0" speed="7.34" length="11.59" shape="325.49,45.02 325.05,48.81 323.95,51.52 322.20,53.14 319.79,53.66"/>
    </edge>
    <edge id=":gneJ174_3" function="internal">
        <lane id=":gneJ174_3_0" index="0" speed="6.52" length="8.93" shape="325.49,45.02 325.08,47.41 324.00,49.12 322.24,50.14 319.81,50.46"/>
    </edge>
    <edge id=":gneJ199_0" function="internal">
        <lane id=":gneJ199_0_0" index="0" speed="7.11" length="5.64" shape="271.37,53.35 270.01,53.51 268.76,53.99 267.62,54.80 266.59,55.94"/>
    </edge>
    <edge id=":gneJ199_1" function="internal">
        <lane id=":gneJ199_1_0" index="0" speed="13.89" length="7.14" shape="271.39,50.15 269.31,50.39 267.94,50.95 266.57,51.51 264.49,51.78"/>
    </edge>
    <edge id=":gneJ202_0" function="internal">
        <lane id=":gneJ202_0_0" index="0" speed="11.10" length="8.29" shape="221.25,116.34 219.65,118.23 218.46,119.57 217.73,121.07 217.48,123.41"/>
    </edge>
    <edge id=":gneJ202_1" function="internal">
        <lane id=":gneJ202_1_0" index="0" speed="13.89" length="8.33" shape="217.47,115.08 217.48,123.41"/>
    </edge>
    <edge id=":junction-intersection-east_0" function="internal">
        <lane id=":junction-intersection-east_0_0" index="0" disallow="tram rail_urban rail rail_electric rail_fast ship" speed="16.42" length="17.28" shape="129.84,58.26 126.80,62.19 125.22,65.28 124.50,68.73 124.05,73.73"/>
        <lane id=":junction-intersection-east_0_1" index="1" disallow="tram rail_urban rail rail_electric rail_fast ship" speed="16.70" length="17.28" shape="126.46,57.32 123.37,61.41 121.87,64.65 121.26,68.27 120.86,73.46"/>
    </edge>
    <edge id=":junction-intersection-east_2" function="internal">
        <lane id=":junction-intersection-east_2_0" index="0" disallow="tram rail_urban rail rail_electric rail_fast ship" speed="22.50" length="17.13" shape="121.87,56.75 123.61,61.57 124.38,65.04 124.44,68.60 124.05,73.73"/>
        <lane id=":junction-intersection-east_2_1" index="1" disallow="tram rail_urban rail rail_electric rail_fast ship" speed="22.18" length="17.13" shape="118.54,57.00 120.26,61.68 121.08,65.03 121.21,68.48 120.86,73.46"/>
    </edge>
    <edge id=":junction-intersection-north_0" function="internal">
        <lane id=":junction-intersection-north_0_0" index="0" disallow="tram rail_urban rail rail_electric rail_fast ship" speed="6.92" length="9.09" shape="73.94,125.65 73.59,123.33 72.54,121.54 70.80,120.29 68.38,119.58"/>
    </edge>
    <edge id=":junction-intersection-north_1" function="internal">
        <lane id=":junction-intersection-north_1_0" index="0" disallow="tram rail_urban rail rail_electric rail_fast ship" speed="6.91" length="9.22" shape="82.70,119.47 80.26,120.15 78.52,121.40 77.48,123.24 77.14,125.65"/>
    </edge>
    <edge id=":junction-intersection-north_2" function="internal">
        <lane id=":junction-intersection-north_2_0" index="0" disallow="tram rail_urban rail rail_electric rail_fast ship" speed="27.78" length="14.41" shape="82.70,119.47 78.46,120.06 75.53,120.32 72.60,120.17 68.38,119.58"/>
        <lane id=":junction-intersection-north_2_1" index="1" disallow="tram rail_urban rail rail_electric rail_fast ship" speed="27.78" length="14.41" shape="82.72,116.23 78.49,116.83 75.56,117.08 72.63,116.94 68.41,116.35"/>
    </edge>
    <edge id=":junction-intersection-south_0" function="internal">
        <lane id=":junction-intersection-south_0_0" index="0" disallow="tram rail_urban rail rail_electric rail_fast ship" speed="20.84" length="26.15" shape="74.20,22.84 100.23,22.25"/>
        <lane id=":junction-intersection-south_0_1" index="1" disallow="tram rail_urban rail rail_electric rail_fast ship" speed="20.84" length="26.15" shape="74.20,22.84 81.09,23.31 87.26,24.27 93.42,25.16 100.31,25.45"/>
    </edge>
    <edge id=":junction-intersection-south_2" function="internal">
        <lane id=":junction-intersection-south_2_0" index="0" disallow="tram rail_urban rail rail_electric rail_fast ship" speed="21.27" length="27.15" shape="74.20,22.84 81.31,23.11 87.81,24.07 93.98,26.07 100.09,29.49"/>
        <lane id=":junction-intersection-south_2_1" index="1" disallow="tram rail_urban rail rail_electric rail_fast ship" speed="21.25" length="27.15" shape="74.18,26.04 81.25,26.40 87.68,27.53 93.79,29.72 99.87,33.22"/>
    </edge>
    <edge id=":junction-intersection-west_0" function="internal">
        <lane id=":junction-intersection-west_0_0" index="0" disallow="tram rail_urban rail rail_electric rail_fast ship" speed="20.84" length="27.97" shape="26.18,97.30 26.26,69.19"/>
        <lane id=":junction-intersection-west_0_1" index="1" disallow="tram rail_urban rail rail_electric rail_fast ship" speed="20.84" length="27.97" shape="29.38,97.29 29.45,69.46"/>
    </edge>
    <edge id=":junction-intersection-west_2" function="internal">
        <lane id=":junction-intersection-west_2_0" index="0" disallow="tram rail_urban rail rail_electric rail_fast ship" speed="21.80" length="28.81" shape="33.46,96.91 30.13,90.32 27.69,83.53 26.34,76.50 26.26,69.19"/>
        <lane id=":junction-intersection-west_2_1" index="1" disallow="tram rail_urban rail rail_electric rail_fast ship" speed="21.61" length="28.81" shape="36.94,96.56 33.57,90.06 31.03,83.49 29.57,76.68 29.45,69.46"/>
    </edge>

    <edge id="-gneE110" from="gneJ115" to="gneJ112" priority="-1">
        <lane id="-gneE110_0" index="0" speed="13.89" length="125.85" shape="82.95,188.52 208.79,190.05"/>
    </edge>
    <edge id="-gneE114" from="gneJ109" to="gneJ112" priority="-1">
        <lane id="-gneE114_0" index="0" speed="13.89" length="96.47" shape="319.71,192.48 223.24,193.28"/>
    </edge>
    <edge id="-gneE124" from="gneJ112" to="gneJ113" priority="-1">
        <lane id="-gneE124_0" index="0" speed="13.89" length="125.13" shape="214.40,184.50 214.21,59.37"/>
    </edge>
    <edge id="-gneE125" from="gneJ148" to="gneJ109" priority="-1" shape="322.77,280.75 326.36,277.08 327.41,274.00 326.90,190.82">
        <lane id="-gneE125_0" index="0" speed="13.89" length="82.40" shape="322.11,279.13 324.96,276.22 325.81,273.74 325.34,198.04"/>
    </edge>
    <edge id="-gneE129" from="gneJ155" to="gneJ148" priority="-1" shape="215.11,283.32 316.67,282.89 318.79,282.28 322.77,280.75">
        <lane id="-gneE129_0" index="0" speed="13.89" length="99.50" shape="222.35,281.69 316.44,281.29 318.28,280.76 321.54,279.51"/>
    </edge>
    <edge id="-gneE135" from="gneJ155" to="gneJ112" priority="-1">
        <lane id="-gneE135_0" index="0" speed="13.89" length="77.15" shape="213.58,276.06 214.34,198.92"/>
    </edge>
    <edge id="-gneE137" from="gneJ167" to="gneJ155" priority="-1" shape="80.06,281.51 84.53,283.88 88.37,284.87 215.11,283.32">
        <lane id="-gneE137_0" index="0" speed="13.89" length="127.22" shape="81.36,280.39 85.11,282.38 88.56,283.27 207.96,281.81"/>
    </edge>
    <edge id="-gneE138" from="gneJ115" to="gneJ167" priority="-1" shape="75.70,190.03 75.48,274.17 76.47,277.24 80.06,281.51">
        <lane id="-gneE138_0" index="0" speed="13.89" length="83.96" shape="77.28,197.26 77.08,273.92 77.90,276.45 80.88,280.00"/>
    </edge>
    <edge id="-gneE140" from="junction-intersection-north" to="gneJ115" priority="-1">
        <lane id="-gneE140_0" index="0" speed="13.89" length="57.10" shape="77.14,125.65 77.28,182.74"/>
    </edge>
    <edge id="edge-east-EN" from="junction-intersection-east" to="junction-intersection-north" priority="11" type="highway.secondary" spreadType="center" shape="122.60,71.84 122.01,78.86 120.38,85.71 117.73,92.25 114.13,98.32 109.67,103.79 104.43,108.54 98.54,112.46 92.12,115.46 85.33,117.48 78.31,118.47 75.52,118.45">
        <lane id="edge-east-EN_0" index="0" disallow="tram rail_urban rail rail_electric rail_fast ship" speed="27.78" length="64.46" shape="124.05,73.73 123.59,79.11 121.91,86.20 119.17,92.96 115.45,99.24 110.83,104.89 105.42,109.81 99.33,113.86 92.69,116.96 85.67,119.05 82.70,119.47"/>
        <lane id="edge-east-EN_1" index="1" disallow="tram rail_urban rail rail_electric rail_fast ship" speed="27.78" length="64.46" shape="120.86,73.46 120.43,78.61 118.85,85.22 116.29,91.54 112.81,97.40 108.51,102.69 103.44,107.27 97.75,111.06 91.55,113.96 84.99,115.91 82.72,116.23"/>
    </edge>
    <edge id="edge-north-NW" from="junction-intersection-north" to="junction-intersection-west" priority="11" type="highway.secondary" spreadType="center" shape="75.52,118.45 71.22,118.41 64.21,117.31 57.45,115.17 51.09,112.07 45.26,108.05 40.11,103.22 35.73,97.67 32.24,91.54 29.70,84.97 28.18,78.08 27.71,71.06">
        <lane id="edge-north-NW_0" index="0" disallow="tram rail_urban rail rail_electric rail_fast ship" speed="27.78" length="40.68" shape="68.38,119.58 63.84,118.87 56.85,116.66 50.28,113.46 44.25,109.30 38.93,104.31 34.40,98.57 33.46,96.91"/>
        <lane id="edge-north-NW_1" index="1" disallow="tram rail_urban rail rail_electric rail_fast ship" speed="27.78" length="40.68" shape="68.41,116.35 64.58,115.75 58.05,113.68 51.90,110.68 46.27,106.80 41.29,102.13 37.06,96.77 36.94,96.56"/>
    </edge>
    <edge id="edge-south-SE" from="junction-intersection-south" to="junction-intersection-east" priority="11" type="highway.secondary" spreadType="center" shape="75.74,24.45 79.09,24.48 86.09,25.59 92.85,27.72 99.22,30.83 105.04,34.84 110.20,39.68 114.58,45.22 118.07,51.35 120.61,57.93 122.13,64.81 122.60,71.84">
        <lane id="edge-south-SE_0" index="0" disallow="tram rail_urban rail rail_electric rail_fast ship" speed="27.78" length="33.26" shape="100.09,29.49 106.05,33.59 111.38,38.59 115.91,44.32 119.52,50.66 121.87,56.75"/>
        <lane id="edge-south-SE_1" index="1" disallow="tram rail_urban rail rail_electric rail_fast ship" speed="27.78" length="33.26" shape="99.87,33.22 104.03,36.09 109.02,40.77 113.25,46.12 116.62,52.04 118.54,57.00"/>
    </edge>
    <edge id="edge-west-WS" from="junction-intersection-west" to="junction-intersection-south" priority="11" type="highway.secondary" spreadType="center" shape="27.71,71.06 28.30,64.04 29.93,57.18 32.58,50.65 36.17,44.58 40.64,39.11 45.88,34.36 51.77,30.44 58.19,27.43 64.98,25.41 72.00,24.42 75.74,24.45">
        <lane id="edge-west-WS_0" index="0" disallow="tram rail_urban rail rail_electric rail_fast ship" speed="27.78" length="71.12" shape="26.26,69.19 26.72,63.79 28.40,56.69 31.14,49.94 34.85,43.66 39.48,38.00 44.89,33.09 50.98,29.04 57.62,25.93 64.64,23.84 71.89,22.82 74.20,22.84"/>
        <lane id="edge-west-WS_1" index="1" disallow="tram rail_urban rail rail_electric rail_fast ship" speed="27.78" length="71.12" shape="29.45,69.46 29.88,64.29 31.46,57.67 34.02,51.36 37.49,45.50 41.80,40.22 46.87,35.63 52.56,31.84 58.76,28.93 65.32,26.98 72.11,26.02 74.18,26.04"/>
    </edge>
    <edge id="gneE100" from="gneJ113" to="gneJ108" priority="-1" spreadType="center">
        <lane id="gneE100_0" index="0" speed="13.89" length="72.35" shape="208.59,53.80 136.24,54.29"/>
        <lane id="gneE100_1" index="1" speed="13.89" length="72.35" shape="208.57,50.60 136.22,51.09"/>
    </edge>
    <edge id="gneE104" from="gneJ115" to="gneJ118" priority="-1" spreadType="center" shape="75.70,190.03 37.85,189.15 35.17,188.69 31.63,186.01">
        <lane id="gneE104_0" index="0" speed="13.89" length="37.12" shape="68.38,191.46 37.70,190.75 34.52,190.20 31.15,187.66"/>
        <lane id="gneE104_1" index="1" speed="13.89" length="37.12" shape="68.46,188.26 38.00,187.55 35.82,187.18 33.08,185.10"/>
    </edge>
    <edge id="gneE105" from="gneJ118" to="junction-intersection-west" priority="-1" spreadType="center" shape="31.63,186.01 28.98,181.63 27.99,178.71 27.71,71.06">
        <lane id="gneE105_0" index="0" speed="13.89" length="89.01" shape="29.94,186.31 27.52,182.31 26.39,178.98 26.18,97.30"/>
        <lane id="gneE105_1" index="1" speed="13.89" length="89.01" shape="32.68,184.66 30.44,180.95 29.59,178.44 29.38,97.29"/>
    </edge>
    <edge id="gneE110" from="gneJ112" to="gneJ115" priority="-1">
        <lane id="gneE110_0" index="0" speed="13.89" length="125.85" shape="208.75,193.25 82.91,191.72"/>
    </edge>
    <edge id="gneE114" from="gneJ112" to="gneJ109" priority="-1">
        <lane id="gneE114_0" index="0" speed="13.89" length="96.47" shape="223.22,190.08 319.68,189.28"/>
    </edge>
    <edge id="gneE124" from="gneJ113" to="gneJ202" priority="-1">
        <lane id="gneE124_0" index="0" speed="13.89" length="55.72" shape="217.41,59.37 217.47,115.08"/>
    </edge>
    <edge id="gneE124.71" from="gneJ202" to="gneJ112" priority="-1">
        <lane id="gneE124.71_0" index="0" speed="13.89" length="61.08" shape="217.48,123.41 217.60,184.49"/>
    </edge>
    <edge id="gneE125" from="gneJ109" to="gneJ148" priority="-1" shape="326.90,190.82 327.41,274.00 326.36,277.08 322.77,280.75">
        <lane id="gneE125_0" index="0" speed="13.89" length="84.93" shape="328.54,198.02 329.01,274.26 327.76,277.94 324.40,281.37"/>
    </edge>
    <edge id="gneE129" from="gneJ148" to="gneJ155" priority="-1" shape="322.77,280.75 318.79,282.28 316.67,282.89 215.11,283.32">
        <lane id="gneE129_0" index="0" speed="13.89" length="100.67" shape="322.69,282.49 319.30,283.80 316.90,284.49 222.36,284.89"/>
    </edge>
    <edge id="gneE135" from="gneJ112" to="gneJ155" priority="-1">