<?xml version="1.0" encoding="UTF-8"?>

<!-- generated on Sun Oct  4 03:07:13 2020 by Eclipse SUMO duarouter Version 1.6.0
<configuration xmlns:xsi="http://www.w3.org/2001/XMLSchema-instance" xsi:noNamespaceSchemaLocation="http://sumo.dlr.de/xsd/duarouterConfiguration.xsd">

    <input>
        <net-file value="/root/workspace/dataset_public/sharp_loop/sharploop_b/map.net.xml"/>
        <route-files value="/tmp/tmpqq2fhqy7/trips.trips.xml"/>
    </input>

    <output>
        <output-file value="/root/workspace/dataset_public/sharp_loop/sharploop_b/traffic/36_patient_car_0.5_impatient_car_0.5.rou.xml"/>
        <alternatives-output value="/root/workspace/dataset_public/sharp_loop/sharploop_b/traffic/36_patient_car_0.5_impatient_car_0.5.rou.alt.xml"/>
    </output>

    <processing>
        <unsorted-input value="true"/>
        <repair value="true"/>
    </processing>

    <report>
        <error-log value="/tmp/smarts/_duarouter_routing/traffic/36_patient_car_0.5_impatient_car_0.5.log"/>
        <no-step-log value="true"/>
    </report>

    <random_number>
        <seed value="233"/>
    </random_number>

</configuration>
-->

<routes xmlns:xsi="http://www.w3.org/2001/XMLSchema-instance" xsi:noNamespaceSchemaLocation="http://sumo.dlr.de/xsd/routes_file.xsd">
    <vType id="actor-impatient_car-3021817845202092773" minGap="2.50" speedFactor="normc(0.50,0.20,0.20,2.00)" vClass="passenger" impatience="0.50" lcCooperative="0.5" lcImpatience="0" jmDriveAfterYellowTime="1.0" accel="2.6" decel="4.5" sigma="0.5"/>
    <vehicle id="-flow-random-route-009bfbac-8bd2-4f4f-8829-6045f91d1d05--226589006977945227-14-0.0" type="actor-impatient_car-3021817845202092773" depart="0.00" departLane="0" departPos="90.88" departSpeed="max" arrivalLane="1" arrivalPos="175.34">
        <route edges="edge0 edge1"/>
    </vehicle>
    <vType id="actor-patient_car--2555990765614724945" minGap="2.50" speedFactor="normc(0.50,0.20,0.20,2.00)" vClass="passenger" impatience="1.00" lcCooperative="0.25" lcImpatience="1" jmDriveAfterYellowTime="1.0" jmDriveAfterRedTime="1.5" accel="2.6" decel="4.5" sigma="0.5"/>
    <vehicle id="-flow-random-route-009bfbac-8bd2-4f4f-8829-6045f91d1d05--226589006977945227-14-1.0" type="actor-patient_car--2555990765614724945" depart="0.00" departLane="0" departPos="90.88" departSpeed="max" arrivalLane="1" arrivalPos="175.34">
        <route edges="edge0 edge1"/>
    </vehicle>
    <vehicle id="-flow-random-route-2a2599be-497f-473f-8b5f-b07127d7e226--226589006977945227-0-0.0" type="actor-impatient_car-3021817845202092773" depart="0.00" departLane="0" departPos="418.34" departSpeed="max" arrivalLane="1" arrivalPos="82.97">
        <route edges="edge1 edge0"/>
    </vehicle>
    <vehicle id="-flow-random-route-2a2599be-497f-473f-8b5f-b07127d7e226--226589006977945227-0-1.0" type="actor-patient_car--2555990765614724945" depart="0.00" departLane="0" departPos="418.34" departSpeed="max" arrivalLane="1" arrivalPos="82.97">
        <route edges="edge1 edge0"/>
    </vehicle>
    <vehicle id="-flow-random-route-36216615-72e8-4655-9300-1533eb30f8d3--226589006977945227-13-0.0" type="actor-impatient_car-3021817845202092773" depart="0.00" departLane="1" departPos="682.80" departSpeed="max" arrivalLane="0" arrivalPos="113.99">
        <route edges="edge1 edge0"/>
    </vehicle>
    <vehicle id="-flow-random-route-36216615-72e8-4655-9300-1533eb30f8d3--226589006977945227-13-1.0" type="actor-patient_car--2555990765614724945" depart="0.00" departLane="1" departPos="682.80" departSpeed="max" arrivalLane="0" arrivalPos="113.99">
        <route edges="edge1 edge0"/>
    </vehicle>
    <vehicle id="-flow-random-route-432b8367-95f9-4fb5-9f7d-7c93307aa573--226589006977945227-8-0.0" type="actor-impatient_car-3021817845202092773" depart="0.00" departLane="2" departPos="122.85" departSpeed="max" arrivalLane="0" arrivalPos="486.22">
        <route edges="edge0 edge1"/>
    </vehicle>
    <vehicle id="-flow-random-route-432b8367-95f9-4fb5-9f7d-7c93307aa573--226589006977945227-8-1.0" type="actor-patient_car--2555990765614724945" depart="0.00" departLane="2" departPos="122.85" departSpeed="max" arrivalLane="0" arrivalPos="486.22">
        <route edges="edge0 edge1"/>
    </vehicle>
    <vehicle id="-flow-random-route-464f5a22-9420-4386-b861-abc5a57ca020--226589006977945227-10-0.0" type="actor-impatient_car-3021817845202092773" depart="0.00" departLane="2" departPos="119.47" departSpeed="max" arrivalLane="1" arrivalPos="104.20">
        <route edges="edge0 edge1"/>
    </vehicle>
    <vehicle id="-flow-random-route-464f5a22-9420-4386-b861-abc5a57ca020--226589006977945227-10-1.0" type="actor-patient_car--2555990765614724945" depart="0.00" departLane="2" departPos="119.47" departSpeed="max" arrivalLane="1" arrivalPos="104.20">
        <route edges="edge0 edge1"/>
    </vehicle>
    <vehicle id="-flow-random-route-5206a24c-d20a-4369-83c6-4aba8ee04ae4--226589006977945227-12-0.0" type="actor-impatient_car-3021817845202092773" depart="0.00" departLane="2" departPos="414.10" departSpeed="max" arrivalLane="1" arrivalPos="122.16">
        <route edges="edge1 edge0"/>
    </vehicle>
    <vehicle id="-flow-random-route-5206a24c-d20a-4369-83c6-4aba8ee04ae4--226589006977945227-12-1.0" type="actor-patient_car--2555990765614724945" depart="0.00" departLane="2" departPos="414.10" departSpeed="max" arrivalLane="1" arrivalPos="122.16">
        <route edges="edge1 edge0"/>
    </vehicle>
    <vehicle id="-flow-random-route-568050d6-bdba-4318-9898-380d2ef65dff--226589006977945227-2-0.0" type="actor-impatient_car-3021817845202092773" depart="0.00" departLane="0" departPos="277.57" departSpeed="max" arrivalLane="0" arrivalPos="66.26">
        <route edges="edge1 edge0"/>
    </vehicle>
    <vehicle id="-flow-random-route-568050d6-bdba-4318-9898-380d2ef65dff--226589006977945227-2-1.0" type="actor-patient_car--2555990765614724945" depart="0.00" departLane="0" departPos="277.57" departSpeed="max" arrivalLane="0" arrivalPos="66.26">
        <route edges="edge1 edge0"/>
    </vehicle>
    <vehicle id="-flow-random-route-6d88493a-dc78-42ea-9926-5295eec5f734--226589006977945227-7-0.0" type="actor-impatient_car-3021817845202092773" depart="0.00" departLane="2" departPos="126.34" departSpeed="max" arrivalLane="0" arrivalPos="118.78">
        <route edges="edge1 edge0"/>
    </vehicle>
    <vehicle id="-flow-random-route-6d88493a-dc78-42ea-9926-5295eec5f734--226589006977945227-7-1.0" type="actor-patient_car--2555990765614724945" depart="0.00" departLane="2" departPos="126.34" departSpeed="max" arrivalLane="0" arrivalPos="118.78">
        <route edges="edge1 edge0"/>
    </vehicle>
    <vehicle id="-flow-random-route-7605b15c-55cb-4a21-b23b-ed8b57aa6c34--226589006977945227-6-0.0" type="actor-impatient_car-3021817845202092773" depart="0.00" departLane="0" departPos="420.99" departSpeed="max" arrivalLane="1" arrivalPos="150.58">
        <route edges="edge1 edge0"/>
    </vehicle>
    <vehicle id="-flow-random-route-7605b15c-55cb-4a21-b23b-ed8b57aa6c34--226589006977945227-6-1.0" type="actor-patient_car--2555990765614724945" depart="0.00" departLane="0" departPos="420.99" departSpeed="max" arrivalLane="1" arrivalPos="150.58">
        <route edges="edge1 edge0"/>
    </vehicle>
    <vehicle id="-flow-random-route-9fc8c455-5b16-4ae1-a4bf-a7ae2d28250c--226589006977945227-9-0.0" type="actor-impatient_car-3021817845202092773" depart="0.00" departLane="2" departPos="29.74" departSpeed="max" arrivalLane="0" arrivalPos="69.19">
        <route edges="edge0 edge1"/>
    </vehicle>
    <vehicle id="-flow-random-route-9fc8c455-5b16-4ae1-a4bf-a7ae2d28250c--226589006977945227-9-1.0" type="actor-patient_car--2555990765614724945" depart="0.00" departLane="2" departPos="29.74" departSpeed="max" arrivalLane="0" arrivalPos="69.19">
        <route edges="edge0 edge1"/>
    </vehicle>
    <vehicle id="-flow-random-route-a1e8e67e-ced2-4a63-a356-1b1154c871b7--226589006977945227-5-0.0" type="actor-impatient_car-3021817845202092773" depart="0.00" departLane="0" departPos="335.88" departSpeed="max" arrivalLane="0" arrivalPos="13.29">
        <route edges="edge1 edge0"/>
    </vehicle>
    <vehicle id="-flow-random-route-a1e8e67e-ced2-4a63-a356-1b1154c871b7--226589006977945227-5-1.0" type="actor-patient_car--2555990765614724945" depart="0.00" departLane="0" departPos="335.88" departSpeed="max" arrivalLane="0" arrivalPos="13.29">
        <route edges="edge1 edge0"/>
    </vehicle>
    <vehicle id="-flow-random-route-a34a6e66-eef7-4e44-99a5-6a138389a59a--226589006977945227-15-0.0" type="actor-impatient_car-3021817845202092773" depart="0.00" departLane="2" departPos="392.06" departSpeed="max" arrivalLane="2" arrivalPos="97.21">
        <route edges="edge1 edge0"/>
    </vehicle>
    <vehicle id="-flow-random-route-a34a6e66-eef7-4e44-99a5-6a138389a59a--226589006977945227-15-1.0" type="actor-patient_car--2555990765614724945" depart="0.00" departLane="2" departPos="392.06" departSpeed="max" arrivalLane="2" arrivalPos="97.21">
        <route edges="edge1 edge0"/>
    </vehicle>
    <vehicle id="-flow-random-route-ae9f447e-0e82-4c99-963e-9b2b892374bd--226589006977945227-11-0.0" type="actor-impatient_car-3021817845202092773" depart="0.00" departLane="0" departPos="117.24" departSpeed="max" arrivalLane="1" arrivalPos="35.32">
        <route edges="edge0 edge1"/>
    </vehicle>
    <vehicle id="-flow-random-route-ae9f447e-0e82-4c99-963e-9b2b892374bd--226589006977945227-11-1.0" type="actor-patient_car--2555990765614724945" depart="0.00" departLane="0" departPos="117.24" departSpeed="max" arrivalLane="1" arrivalPos="35.32">
        <route edges="edge0 edge1"/>
    </vehicle>
    <vehicle id="-flow-random-route-b4d748b3-810b-46d1-853c-759cfecd65f6--226589006977945227-3-0.0" type="actor-impatient_car-3021817845202092773" depart="0.00" departLane="1" departPos="30.48" departSpeed="max" arrivalLane="2" arrivalPos="222.45">
        <route edges="edge0 edge1"/>
    </vehicle>
    <vehicle id="-flow-random-route-b4d748b3-810b-46d1-853c-759cfecd65f6--226589006977945227-3-1.0" type="actor-patient_car--2555990765614724945" depart="0.00" departLane="1" departPos="30.48" departSpeed="max" arrivalLane="2" arrivalPos="222.45">
        <route edges="edge0 edge1"/>
    </vehicle>
    <vehicle id="-flow-random-route-bc9e639f-ea9a-4434-af33-c7021236e39d--226589006977945227-4-0.0" type="actor-impatient_car-3021817845202092773" depart="0.00" departLane="0" departPos="198.54" departSpeed="max" arrivalLane="0" arrivalPos="81.81">
        <route edges="edge1 edge0"/>
    </vehicle>
    <vehicle id="-flow-random-route-bc9e639f-ea9a-4434-af33-c7021236e39d--226589006977945227-4-1.0" type="actor-patient_car--2555990765614724945" depart="0.00" departLane="0" departPos="198.54" departSpeed="max" arrivalLane="0" arrivalPos="81.81">
        <route edges="edge1 edge0"/>
    </vehicle>
    <vehicle id="-flow-random-route-c1c85b11-91e5-4bd9-9b8d-0b90cc43c936--226589006977945227-1-0.0" type="actor-impatient_car-3021817845202092773" depart="0.00" departLane="1" departPos="89.38" departSpeed="max" arrivalLane="1" arrivalPos="53.28">
        <route edges="edge1 edge0"/>
    </vehicle>
    <vehicle id="-flow-random-route-c1c85b11-91e5-4bd9-9b8d-0b90cc43c936--226589006977945227-1-1.0" type="actor-patient_car--2555990765614724945" depart="0.00" departLane="1" departPos="89.38" departSpeed="max" arrivalLane="1" arrivalPos="53.28">
        <route edges="edge1 edge0"/>
    </vehicle>
    <vehicle id="-flow-random-route-ce5abe49-22ab-491d-a508-804fb053ba28--226589006977945227-17-0.0" type="actor-impatient_car-3021817845202092773" depart="0.00" departLane="2" departPos="406.13" departSpeed="max" arrivalLane="1" arrivalPos="96.03">
        <route edges="edge1 edge0"/>
    </vehicle>
    <vehicle id="-flow-random-route-ce5abe49-22ab-491d-a508-804fb053ba28--226589006977945227-17-1.0" type="actor-patient_car--2555990765614724945" depart="0.00" departLane="2" departPos="406.13" departSpeed="max" arrivalLane="1" arrivalPos="96.03">
        <route edges="edge1 edge0"/>
    </vehicle>
    <vehicle id="-flow-random-route-f88e937b-4c04-43e6-91c9-9a6363885688--226589006977945227-16-0.0" type="actor-impatient_car-3021817845202092773" depart="0.00" departLane="2" departPos="278.49" departSpeed="max" arrivalLane="2" arrivalPos="89.52">
        <route edges="edge1 edge0"/>
    </vehicle>
    <vehicle id="-flow-random-route-f88e937b-4c04-43e6-91c9-9a6363885688--226589006977945227-16-1.0" type="actor-patient_car--2555990765614724945" depart="0.00" departLane="2" departPos="278.49" departSpeed="max" arrivalLane="2" arrivalPos="89.52">
        <route edges="edge1 edge0"/>
    </vehicle>
    <vehicle id="-flow-random-route-009bfbac-8bd2-4f4f-8829-6045f91d1d05--226589006977945227-14-0.1" type="actor-impatient_car-3021817845202092773" depart="240.00" departLane="0" departPos="90.88" departSpeed="max" arrivalLane="1" arrivalPos="175.34">
        <route edges="edge0 edge1"/>
    </vehicle>
    <vehicle id="-flow-random-route-009bfbac-8bd2-4f4f-8829-6045f91d1d05--226589006977945227-14-1.1" type="actor-patient_car--2555990765614724945" depart="240.00" departLane="0" departPos="90.88" departSpeed="max" arrivalLane="1" arrivalPos="175.34">
        <route edges="edge0 edge1"/>
    </vehicle>
    <vehicle id="-flow-random-route-2a2599be-497f-473f-8b5f-b07127d7e226--226589006977945227-0-0.1" type="actor-impatient_car-3021817845202092773" depart="240.00" departLane="0" departPos="418.34" departSpeed="max" arrivalLane="1" arrivalPos="82.97">
        <route edges="edge1 edge0"/>
    </vehicle>
    <vehicle id="-flow-random-route-2a2599be-497f-473f-8b5f-b07127d7e226--226589006977945227-0-1.1" type="actor-patient_car--2555990765614724945" depart="240.00" departLane="0" departPos="418.34" departSpeed="max" arrivalLane="1" arrivalPos="82.97">
        <route edges="edge1 edge0"/>
    </vehicle>
    <vehicle id="-flow-random-route-36216615-72e8-4655-9300-1533eb30f8d3--226589006977945227-13-0.1" type="actor-impatient_car-3021817845202092773" depart="240.00" departLane="1" departPos="682.80" departSpeed="max" arrivalLane="0" arrivalPos="113.99">
        <route edges="edge1 edge0"/>
    </vehicle>
    <vehicle id="-flow-random-route-36216615-72e8-4655-9300-1533eb30f8d3--226589006977945227-13-1.1" type="actor-patient_car--2555990765614724945" depart="240.00" departLane="1" departPos="682.80" departSpeed="max" arrivalLane="0" arrivalPos="113.99">
        <route edges="edge1 edge0"/>
    </vehicle>
    <vehicle id="-flow-random-route-432b8367-95f9-4fb5-9f7d-7c93307aa573--226589006977945227-8-0.1" type="actor-impatient_car-3021817845202092773" depart="240.00" departLane="2" departPos="122.85" departSpeed="max" arrivalLane="0" arrivalPos="486.22">
        <route edges="edge0 edge1"/>
    </vehicle>
    <vehicle id="-flow-random-route-432b8367-95f9-4fb5-9f7d-7c93307aa573--226589006977945227-8-1.1" type="actor-patient_car--2555990765614724945" depart="240.00" departLane="2" departPos="122.85" departSpeed="max" arrivalLane="0" arrivalPos="486.22">
        <route edges="edge0 edge1"/>
    </vehicle>
    <vehicle id="-flow-random-route-464f5a22-9420-4386-b861-abc5a57ca020--226589006977945227-10-0.1" type="actor-impatient_car-3021817845202092773" depart="240.00" departLane="2" departPos="119.47" departSpeed="max" arrivalLane="1" arrivalPos="104.20">
        <route edges="edge0 edge1"/>
    </vehicle>
    <vehicle id="-flow-random-route-464f5a22-9420-4386-b861-abc5a57ca020--226589006977945227-10-1.1" type="actor-patient_car--2555990765614724945" depart="240.00" departLane="2" departPos="119.47" departSpeed="max" arrivalLane="1" arrivalPos="104.20">
        <route edges="edge0 edge1"/>
    </vehicle>
    <vehicle id="-flow-random-route-5206a24c-d20a-4369-83c6-4aba8ee04ae4--226589006977945227-12-0.1" type="actor-impatient_car-3021817845202092773" depart="240.00" departLane="2" departPos="414.10" departSpeed="max" arrivalLane="1" arrivalPos="122.16">
        <route edges="edge1 edge0"/>
    </vehicle>
    <vehicle id="-flow-random-route-5206a24c-d20a-4369-83c6-4aba8ee04ae4--226589006977945227-12-1.1" type="actor-patient_car--2555990765614724945" depart="240.00" departLane="2" departPos="414.10" departSpeed="max" arrivalLane="1" arrivalPos="122.16">
        <route edges="edge1 edge0"/>
    </vehicle>
    <vehicle id="-flow-random-route-568050d6-bdba-4318-9898-380d2ef65dff--226589006977945227-2-0.1" type="actor-impatient_car-3021817845202092773" depart="240.00" departLane="0" departPos="277.57" departSpeed="max" arrivalLane="0" arrivalPos="66.26">
        <route edges="edge1 edge0"/>
    </vehicle>
    <vehicle id="-flow-random-route-568050d6-bdba-4318-9898-380d2ef65dff--226589006977945227-2-1.1" type="actor-patient_car--2555990765614724945" depart="240.00" departLane="0" departPos="277.57" departSpeed="max" arrivalLane="0" arrivalPos="66.26">
        <route edges="edge1 edge0"/>
    </vehicle>
    <vehicle id="-flow-random-route-6d88493a-dc78-42ea-9926-5295eec5f734--226589006977945227-7-0.1" type="actor-impatient_car-3021817845202092773" depart="240.00" departLane="2" departPos="126.34" departSpeed="max" arrivalLane="0" arrivalPos="118.78">
        <route edges="edge1 edge0"/>
    </vehicle>
    <vehicle id="-flow-random-route-6d88493a-dc78-42ea-9926-5295eec5f734--226589006977945227-7-1.1" type="actor-patient_car--2555990765614724945" depart="240.00" departLane="2" departPos="126.34" departSpeed="max" arrivalLane="0" arrivalPos="118.78">
        <route edges="edge1 edge0"/>
    </vehicle>
    <vehicle id="-flow-random-route-7605b15c-55cb-4a21-b23b-ed8b57aa6c34--226589006977945227-6-0.1" type="actor-impatient_car-3021817845202092773" depart="240.00" departLane="0" departPos="420.99" departSpeed="max" arrivalLane="1" arrivalPos="150.58">
        <route edges="edge1 edge0"/>
    </vehicle>
    <vehicle id="-flow-random-route-7605b15c-55cb-4a21-b23b-ed8b57aa6c34--226589006977945227-6-1.1" type="actor-patient_car--2555990765614724945" depart="240.00" departLane="0" departPos="420.99" departSpeed="max" arrivalLane="1" arrivalPos="150.58">
        <route edges="edge1 edge0"/>
    </vehicle>
    <vehicle id="-flow-random-route-9fc8c455-5b16-4ae1-a4bf-a7ae2d28250c--226589006977945227-9-0.1" type="actor-impatient_car-3021817845202092773" depart="240.00" departLane="2" departPos="29.74" departSpeed="max" arrivalLane="0" arrivalPos="69.19">
        <route edges="edge0 edge1"/>
    </vehicle>
    <vehicle id="-flow-random-route-9fc8c455-5b16-4ae1-a4bf-a7ae2d28250c--226589006977945227-9-1.1" type="actor-patient_car--2555990765614724945" depart="240.00" departLane="2" departPos="29.74" departSpeed="max" arrivalLane="0" arrivalPos="69.19">
        <route edges="edge0 edge1"/>
    </vehicle>
    <vehicle id="-flow-random-route-a1e8e67e-ced2-4a63-a356-1b1154c871b7--226589006977945227-5-0.1" type="actor-impatient_car-3021817845202092773" depart="240.00" departLane="0" departPos="335.88" departSpeed="max" arrivalLane="0" arrivalPos="13.29">
        <route edges="edge1 edge0"/>
    </vehicle>
    <vehicle id="-flow-random-route-a1e8e67e-ced2-4a63-a356-1b1154c871b7--226589006977945227-5-1.1" type="actor-patient_car--2555990765614724945" depart="240.00" departLane="0" departPos="335.88" departSpeed="max" arrivalLane="0" arrivalPos="13.29">
        <route edges="edge1 edge0"/>
    </vehicle>
    <vehicle id="-flow-random-route-a34a6e66-eef7-4e44-99a5-6a138389a59a--226589006977945227-15-0.1" type="actor-impatient_car-3021817845202092773" depart="240.00" departLane="2" departPos="392.06" departSpeed="max" arrivalLane="2" arrivalPos="97.21">
        <route edges="edge1 edge0"/>
    </vehicle>
    <vehicle id="-flow-random-route-a34a6e66-eef7-4e44-99a5-6a138389a59a--226589006977945227-15-1.1" type="actor-patient_car--2555990765614724945" depart="240.00" departLane="2" departPos="392.06" departSpeed="max" arrivalLane="2" arrivalPos="97.21">
        <route edges="edge1 edge0"/>
    </vehicle>
    <vehicle id="-flow-random-route-ae9f447e-0e82-4c99-963e-9b2b892374bd--226589006977945227-11-0.1" type="actor-impatient_car-3021817845202092773" depart="240.00" departLane="0" departPos="117.24" departSpeed="max" arrivalLane="1" arrivalPos="35.32">
        <route edges="edge0 edge1"/>
    </vehicle>
    <vehicle id="-flow-random-route-ae9f447e-0e82-4c99-963e-9b2b892374bd--226589006977945227-11-1.1" type="actor-patient_car--2555990765614724945" depart="240.00" departLane="0" departPos="117.24" departSpeed="max" arrivalLane="1" arrivalPos="35.32">
        <route edges="edge0 edge1"/>
    </vehicle>
    <vehicle id="-flow-random-route-b4d748b3-810b-46d1-853c-759cfecd65f6--226589006977945227-3-0.1" type="actor-impatient_car-3021817845202092773" depart="240.00" departLane="1" departPos="30.48" departSpeed="max" arrivalLane="2" arrivalPos="222.45">
        <route edges="edge0 edge1"/>
    </vehicle>
    <vehicle id="-flow-random-route-b4d748b3-810b-46d1-853c-759cfecd65f6--226589006977945227-3-1.1" type="actor-patient_car--2555990765614724945" depart="240.00" departLane="1" departPos="30.48" departSpeed="max" arrivalLane="2" arrivalPos="222.45">
        <route edges="edge0 edge1"/>
    </vehicle>
    <vehicle id="-flow-random-route-bc9e639f-ea9a-4434-af33-c7021236e39d--226589006977945227-4-0.1" type="actor-impatient_car-3021817845202092773" depart="240.00" departLane="0" departPos="198.54" departSpeed="max" arrivalLane="0" arrivalPos="81.81">
        <route edges="edge1 edge0"/>
    </vehicle>
    <vehicle id="-flow-random-route-bc9e639f-ea9a-4434-af33-c7021236e39d--226589006977945227-4-1.1" type="actor-patient_car--2555990765614724945" depart="240.00" departLane="0" departPos="198.54" departSpeed="max" arrivalLane="0" arrivalPos="81.81">
        <route edges="edge1 edge0"/>
    </vehicle>
    <vehicle id="-flow-random-route-c1c85b11-91e5-4bd9-9b8d-0b90cc43c936--226589006977945227-1-0.1" type="actor-impatient_car-3021817845202092773" depart="240.00" departLane="1" departPos="89.38" departSpeed="max" arrivalLane="1" arrivalPos="53.28">
        <route edges="edge1 edge0"/>
    </vehicle>
    <vehicle id="-flow-random-route-c1c85b11-91e5-4bd9-9b8d-0b90cc43c936--226589006977945227-1-1.1" type="actor-patient_car--2555990765614724945" depart="240.00" departLane="1" departPos="89.38" departSpeed="max" arrivalLane="1" arrivalPos="53.28">
        <route edges="edge1 edge0"/>
    </vehicle>
    <vehicle id="-flow-random-route-ce5abe49-22ab-491d-a508-804fb053ba28--226589006977945227-17-0.1" type="actor-impatient_car-3021817845202092773" depart="240.00" departLane="2" departPos="406.13" departSpeed="max" arrivalLane="1" arrivalPos="96.03">
        <route edges="edge1 edge0"/>
    </vehicle>
    <vehicle id="-flow-random-route-ce5abe49-22ab-491d-a508-804fb053ba28--226589006977945227-17-1.1" type="actor-patient_car--2555990765614724945" depart="240.00" departLane="2" departPos="406.13" departSpeed="max" arrivalLane="1" arrivalPos="96.03">
        <route edges="edge1 edge0"/>
    </vehicle>
    <vehicle id="-flow-random-route-f88e937b-4c04-43e6-91c9-9a6363885688--226589006977945227-16-0.1" type="actor-impatient_car-3021817845202092773" depart="240.00" departLane="2" departPos="278.49" departSpeed="max" arrivalLane="2" arrivalPos="89.52">
        <route edges="edge1 edge0"/>
    </vehicle>
    <vehicle id="-flow-random-route-f88e937b-4c04-43e6-91c9-9a6363885688--226589006977945227-16-1.1" type="actor-patient_car--2555990765614724945" depart="240.00" departLane="2" departPos="278.49" departSpeed="max" arrivalLane="2" arrivalPos="89.52">
        <route edges="edge1 edge0"/>
    </vehicle>
    <vehicle id="-flow-random-route-009bfbac-8bd2-4f4f-8829-6045f91d1d05--226589006977945227-14-0.2" type="actor-impatient_car-3021817845202092773" depart="480.00" departLane="0" departPos="90.88" departSpeed="max" arrivalLane="1" arrivalPos="175.34">
        <route edges="edge0 edge1"/>
    </vehicle>
    <vehicle id="-flow-random-route-009bfbac-8bd2-4f4f-8829-6045f91d1d05--226589006977945227-14-1.2" type="actor-patient_car--2555990765614724945" depart="480.00" departLane="0" departPos="90.88" departSpeed="max" arrivalLane="1" arrivalPos="175.34">
        <route edges="edge0 edge1"/>
    </vehicle>
    <vehicle id="-flow-random-route-2a2599be-497f-473f-8b5f-b07127d7e226--226589006977945227-0-0.2" type="actor-impatient_car-3021817845202092773" depart="480.00" departLane="0" departPos="418.34" departSpeed="max" arrivalLane="1" arrivalPos="82.97">
        <route edges="edge1 edge0"/>
    </vehicle>
    <vehicle id="-flow-random-route-2a2599be-497f-473f-8b5f-b07127d7e226--226589006977945227-0-1.2" type="actor-patient_car--2555990765614724945" depart="480.00" departLane="0" departPos="418.34" departSpeed="max" arrivalLane="1" arrivalPos="82.97">
        <route edges="edge1 edge0"/>
    </vehicle>
    <vehicle id="-flow-random-route-36216615-72e8-4655-9300-1533eb30f8d3--226589006977945227-13-0.2" type="actor-impatient_car-3021817845202092773" depart="480.00" departLane="1" departPos="682.80" departSpeed="max" arrivalLane="0" arrivalPos="113.99">
        <route edges="edge1 edge0"/>
    </vehicle>
    <vehicle id="-flow-random-route-36216615-72e8-4655-9300-1533eb30f8d3--226589006977945227-13-1.2" type="actor-patient_car--2555990765614724945" depart="480.00" departLane="1" departPos="682.80" departSpeed="max" arrivalLane="0" arrivalPos="113.99">
        <route edges="edge1 edge0"/>
    </vehicle>
    <vehicle id="-flow-random-route-432b8367-95f9-4fb5-9f7d-7c93307aa573--226589006977945227-8-0.2" type="actor-impatient_car-3021817845202092773" depart="480.00" departLane="2" departPos="122.85" departSpeed="max" arrivalLane="0" arrivalPos="486.22">
        <route edges="edge0 edge1"/>
    </vehicle>
    <vehicle id="-flow-random-route-432b8367-95f9-4fb5-9f7d-7c93307aa573--226589006977945227-8-1.2" type="actor-patient_car--2555990765614724945" depart="480.00" departLane="2" departPos="122.85" departSpeed="max" arrivalLane="0" arrivalPos="486.22">
        <route edges="edge0 edge1"/>
    </vehicle>
    <vehicle id="-flow-random-route-464f5a22-9420-4386-b861-abc5a57ca020--226589006977945227-10-0.2" type="actor-impatient_car-3021817845202092773" depart="480.00" departLane="2" departPos="119.47" departSpeed="max" arrivalLane="1" arrivalPos="104.20">
        <route edges="edge0 edge1"/>
    </vehicle>
    <vehicle id="-flow-random-route-464f5a22-9420-4386-b861-abc5a57ca020--226589006977945227-10-1.2" type="actor-patient_car--2555990765614724945" depart="480.00" departLane="2" departPos="119.47" departSpeed="max" arrivalLane="1" arrivalPos="104.20">
        <route edges="edge0 edge1"/>
    </vehicle>
    <vehicle id="-flow-random-route-5206a24c-d20a-4369-83c6-4aba8ee04ae4--226589006977945227-12-0.2" type="actor-impatient_car-3021817845202092773" depart="480.00" departLane="2" departPos="414.10" departSpeed="max" arrivalLane="1" arrivalPos="122.16">
        <route edges="edge1 edge0"/>
    </vehicle>
    <vehicle id="-flow-random-route-5206a24c-d20a-4369-83c6-4aba8ee04ae4--226589006977945227-12-1.2" type="actor-patient_car--2555990765614724945" depart="480.00" departLane="2" departPos="414.10" departSpeed="max" arrivalLane="1" arrivalPos="122.16">
        <route edges="edge1 edge0"/>
    </vehicle>
    <vehicle id="-flow-random-route-568050d6-bdba-4318-9898-380d2ef65dff--226589006977945227-2-0.2" type="actor-impatient_car-3021817845202092773" depart="480.00" departLane="0" departPos="277.57" departSpeed="max" arrivalLane="0" arrivalPos="66.26">
        <route edges="edge1 edge0"/>
    </vehicle>
    <vehicle id="-flow-random-route-568050d6-bdba-4318-9898-380d2ef65dff--226589006977945227-2-1.2" type="actor-patient_car--2555990765614724945" depart="480.00" departLane="0" departPos="277.57" departSpeed="max" arrivalLane="0" arrivalPos="66.26">
        <route edges="edge1 edge0"/>
    </vehicle>
    <vehicle id="-flow-random-route-6d88493a-dc78-42ea-9926-5295eec5f734--226589006977945227-7-0.2" type="actor-impatient_car-3021817845202092773" depart="480.00" departLane="2" departPos="126.34" departSpeed="max" arrivalLane="0" arrivalPos="118.78">
        <route edges="edge1 edge0"/>
    </vehicle>
    <vehicle id="-flow-random-route-6d88493a-dc78-42ea-9926-5295eec5f734--226589006977945227-7-1.2" type="actor-patient_car--2555990765614724945" depart="480.00" departLane="2" departPos="126.34" departSpeed="max" arrivalLane="0" arrivalPos="118.78">
        <route edges="edge1 edge0"/>
    </vehicle>
    <vehicle id="-flow-random-route-7605b15c-55cb-4a21-b23b-ed8b57aa6c34--226589006977945227-6-0.2" type="actor-impatient_car-3021817845202092773" depart="480.00" departLane="0" departPos="420.99" departSpeed="max" arrivalLane="1" arrivalPos="150.58">
        <route edges="edge1 edge0"/>
    </vehicle>
    <vehicle id="-flow-random-route-7605b15c-55cb-4a21-b23b-ed8b57aa6c34--226589006977945227-6-1.2" type="actor-patient_car--2555990765614724945" depart="480.00" departLane="0" departPos="420.99" departSpeed="max" arrivalLane="1" arrivalPos="150.58">
        <route edges="edge1 edge0"/>
    </vehicle>
    <vehicle id="-flow-random-route-9fc8c455-5b16-4ae1-a4bf-a7ae2d28250c--226589006977945227-9-0.2" type="actor-impatient_car-3021817845202092773" depart="480.00" departLane="2" departPos="29.74" departSpeed="max" arrivalLane="0" arrivalPos="69.19">
        <route edges="edge0 edge1"/>
    </vehicle>
    <vehicle id="-flow-random-route-9fc8c455-5b16-4ae1-a4bf-a7ae2d28250c--226589006977945227-9-1.2" type="actor-patient_car--2555990765614724945" depart="480.00" departLane="2" departPos="29.74" departSpeed="max" arrivalLane="0" arrivalPos="69.19">
        <route edges="edge0 edge1"/>
    </vehicle>
    <vehicle id="-flow-random-route-a1e8e67e-ced2-4a63-a356-1b1154c871b7--226589006977945227-5-0.2" type="actor-impatient_car-3021817845202092773" depart="480.00" departLane="0" departPos="335.88" departSpeed="max" arrivalLane="0" arrivalPos="13.29">
        <route edges="edge1 edge0"/>
    </vehicle>