<?xml version="1.0" encoding="UTF-8"?>

<!-- generated on Fri Sep 18 08:03:30 2020 by Eclipse SUMO duarouter Version 1.6.0
<configuration xmlns:xsi="http://www.w3.org/2001/XMLSchema-instance" xsi:noNamespaceSchemaLocation="http://sumo.dlr.de/xsd/duarouterConfiguration.xsd">

    <input>
        <net-file value="demo3/map.net.xml"/>
        <route-files value="/tmp/tmp3skyshj_/trips.trips.xml"/>
    </input>

    <output>
        <output-file value="demo3/traffic/30_patient_car.rou.xml"/>
        <alternatives-output value="demo3/traffic/30_patient_car.rou.alt.xml"/>
    </output>

    <processing>
        <unsorted-input value="true"/>
        <repair value="true"/>
    </processing>

    <report>
        <error-log value="/tmp/smarts/_duarouter_routing/traffic/30_patient_car.log"/>
        <no-step-log value="true"/>
    </report>

    <random_number>
        <seed value="42"/>
    </random_number>

</configuration>
-->

<routes xmlns:xsi="http://www.w3.org/2001/XMLSchema-instance" xsi:noNamespaceSchemaLocation="http://sumo.dlr.de/xsd/routes_file.xsd">
    <vType id="actor-car--4621384712778567517" minGap="2.50" speedFactor="normc(0.50,0.20,0.20,2.00)" vClass="passenger" impatience="0.50" lcCooperative="0.5" lcImpatience="0" jmDriveAfterYellowTime="1.0" accel="2.6" decel="4.5" sigma="0.5"/>
    <vehicle id="-flow-random-route-000da8a3-b14a-409a-ab90-3570cb2143cf--2726113956409889533-28-0.0" type="actor-car--4621384712778567517" depart="0.00" departLane="0" departPos="6.84" departSpeed="max" arrivalLane="0" arrivalPos="25.48">
        <route edges="-gneE52 gneE33 gneE32 -gneE31 gneE49 gneE46 gneE47 gneE48 gneE31 -gneE32"/>
    </vehicle>
    <vehicle id="-flow-random-route-0ac1dfdd-f5c9-45d4-8215-d90dc42f8beb--2726113956409889533-6-0.0" type="actor-car--4621384712778567517" depart="0.00" departLane="0" departPos="26.43" departSpeed="max" arrivalLane="0" arrivalPos="12.67">
        <route edges="gneE45 -gneE49 -gneE48 -gneE47 -gneE50 -gneE33 gneE52 -gneE45 -gneE44 gneE42"/>
    </vehicle>
    <vehicle id="-flow-random-route-0fbc4cc9-a71a-4f72-8310-d641f3a7d2a5--2726113956409889533-0-0.0" type="actor-car--4621384712778567517" depart="0.00" departLane="0" departPos="27.82" departSpeed="max" arrivalLane="0" arrivalPos="10.70">
        <route edges="gneE45 gneE46 -gneE50 gneE32 -gneE31 -gneE48 -gneE47 -gneE50 -gneE33 -gneE41"/>
    </vehicle>
    <vehicle id="-flow-random-route-1601de68-dcba-4230-a1f8-338d567ccd84--2726113956409889533-21-0.0" type="actor-car--4621384712778567517" depart="0.00" departLane="0" departPos="6.82" departSpeed="max" arrivalLane="0" arrivalPos="9.67">
        <route edges="-gneE52 -gneE41 -gneE42 gneE44 gneE45 gneE46 gneE47 gneE48 gneE49 -gneE52"/>
    </vehicle>
    <vehicle id="-flow-random-route-2510eaf5-24c1-4d82-b638-e068945038b3--2726113956409889533-11-0.0" type="actor-car--4621384712778567517" depart="0.00" departLane="0" departPos="23.80" departSpeed="max" arrivalLane="0" arrivalPos="16.30">
        <route edges="gneE33 gneE50 gneE47 gneE48 gneE49 gneE46 gneE47 gneE48 gneE49 -gneE52"/>
    </vehicle>
    <vehicle id="-flow-random-route-25a9a0dc-edc9-4a44-911f-815220a4d000--2726113956409889533-3-0.0" type="actor-car--4621384712778567517" depart="0.00" departLane="0" departPos="42.61" departSpeed="max" arrivalLane="0" arrivalPos="16.52">
        <route edges="gneE50 -gneE46 -gneE49 gneE31 -gneE32"/>
    </vehicle>
    <vehicle id="-flow-random-route-2b73598f-3fea-4c53-9bf2-9c781db40aad--2726113956409889533-10-0.0" type="actor-car--4621384712778567517" depart="0.00" departLane="0" departPos="31.14" departSpeed="max" arrivalLane="0" arrivalPos="70.61">
        <route edges="gneE46 gneE47 gneE48 gneE49 -gneE45 -gneE51"/>
    </vehicle>
    <vehicle id="-flow-random-route-42051a56-4f10-404b-a9b0-c2cf4264a150--2726113956409889533-29-0.0" type="actor-car--4621384712778567517" depart="0.00" departLane="0" departPos="36.34" departSpeed="max" arrivalLane="0" arrivalPos="28.86">
        <route edges="gneE49 -gneE45 -gneE51"/>
    </vehicle>
    <vehicle id="-flow-random-route-4a6e1c56-4bfe-4131-929f-14949c95c6e0--2726113956409889533-2-0.0" type="actor-car--4621384712778567517" depart="0.00" departLane="0" departPos="11.66" departSpeed="max" arrivalLane="0" arrivalPos="20.82">
        <route edges="-gneE46 -gneE52 -gneE41 -gneE42 -gneE54 gneE32 -gneE31 gneE49 -gneE52 gneE33"/>
    </vehicle>
    <vehicle id="-flow-random-route-4cd7b583-b6ce-406e-a082-0f03d7a983fc--2726113956409889533-17-0.0" type="actor-car--4621384712778567517" depart="0.00" departLane="0" departPos="43.25" departSpeed="max" arrivalLane="0" arrivalPos="5.35">
        <route edges="gneE48 gneE49 -gneE52 gneE33 gneE50"/>
    </vehicle>
    <vehicle id="-flow-random-route-4d71e825-584f-4335-811d-14d1afac85f2--2726113956409889533-4-0.0" type="actor-car--4621384712778567517" depart="0.00" departLane="0" departPos="55.33" departSpeed="max" arrivalLane="0" arrivalPos="9.31">
        <route edges="gneE52 -gneE49 gneE31 -gneE32 gneE54"/>
    </vehicle>
    <vehicle id="-flow-random-route-4e6b87ab-a76f-4da9-9994-958b67b5ced7--2726113956409889533-5-0.0" type="actor-car--4621384712778567517" depart="0.00" departLane="0" departPos="0.27" departSpeed="max" arrivalLane="0" arrivalPos="6.79">
        <route edges="gneE44 gneE45 -gneE49 -gneE48 -gneE47 -gneE46 -gneE45 -gneE44 -gneE54 -gneE33"/>
    </vehicle>
    <vehicle id="-flow-random-route-66823ca9-2660-4592-82db-2b15031da41a--2726113956409889533-22-0.0" type="actor-car--4621384712778567517" depart="0.00" departLane="0" departPos="26.96" departSpeed="max" arrivalLane="0" arrivalPos="2.80">
        <route edges="-gneE41 -gneE42 gneE44 gneE45 -gneE52"/>
    </vehicle>
    <vehicle id="-flow-random-route-82d84274-37cf-48e9-a8cb-82e522a252f8--2726113956409889533-18-0.0" type="actor-car--4621384712778567517" depart="0.00" departLane="0" departPos="17.65" departSpeed="max" arrivalLane="0" arrivalPos="16.95">
        <route edges="gneE33 gneE32 -gneE31 -gneE48 -gneE47"/>
    </vehicle>
    <vehicle id="-flow-random-route-853b65b7-7225-4200-bcf4-8c2f52ff8081--2726113956409889533-23-0.0" type="actor-car--4621384712778567517" depart="0.00" departLane="0" departPos="25.25" departSpeed="max" arrivalLane="0" arrivalPos="35.25">
        <route edges="gneE31 -gneE32 -gneE33 gneE52 -gneE49 -gneE48 -gneE47 -gneE50 gneE32 -gneE31"/>
    </vehicle>
    <vehicle id="-flow-random-route-89ec2171-7ab8-449b-a3b5-9b1d8010b0ee--2726113956409889533-16-0.0" type="actor-car--4621384712778567517" depart="0.00" departLane="0" departPos="13.93" departSpeed="max" arrivalLane="0" arrivalPos="52.42">
        <route edges="-gneE45 -gneE51"/>
    </vehicle>
    <vehicle id="-flow-random-route-9169faaf-91ba-4fac-8925-e3e475592411--2726113956409889533-13-0.0" type="actor-car--4621384712778567517" depart="0.00" departLane="0" departPos="21.03" departSpeed="max" arrivalLane="0" arrivalPos="24.89">
        <route edges="gneE49 -gneE52 -gneE41 -gneE42 -gneE54 gneE32 -gneE31 -gneE48 -gneE47 -gneE50"/>
    </vehicle>
    <vehicle id="-flow-random-route-98f1d63a-779c-4e29-83f8-f0c3894ef7e9--2726113956409889533-9-0.0" type="actor-car--4621384712778567517" depart="0.00" departLane="0" departPos="13.24" departSpeed="max" arrivalLane="0" arrivalPos="61.12">
        <route edges="-gneE31 gneE49 -gneE52 -gneE41 -gneE42 gneE44 -gneE51"/>
    </vehicle>
    <vehicle id="-flow-random-route-99f29546-4fd8-4917-8960-64600b4ea5d8--2726113956409889533-1-0.0" type="actor-car--4621384712778567517" depart="0.00" departLane="0" departPos="57.38" departSpeed="max" arrivalLane="0" arrivalPos="13.03">
        <route edges="gneE52 -gneE49 gneE31 -gneE32 gneE54 gneE44 gneE45 gneE46 gneE47 gneE48"/>
    </vehicle>
    <vehicle id="-flow-random-route-9d16b65e-33c7-4acd-abd3-982b53af14a0--2726113956409889533-14-0.0" type="actor-car--4621384712778567517" depart="0.00" departLane="0" departPos="31.42" departSpeed="max" arrivalLane="0" arrivalPos="4.77">
        <route edges="gneE46 gneE47 gneE48 gneE31 -gneE32"/>
    </vehicle>
    <vehicle id="-flow-random-route-a623759f-abfb-4c53-b3c8-0736b43dde3a--2726113956409889533-7-0.0" type="actor-car--4621384712778567517" depart="0.00" departLane="0" departPos="4.53" departSpeed="max" arrivalLane="0" arrivalPos="36.99">
        <route edges="gneE33 gneE54 gneE42 gneE41"/>
    </vehicle>
    <vehicle id="-flow-random-route-aa67b430-3d31-4ceb-82dd-f1d91791f311--2726113956409889533-24-0.0" type="actor-car--4621384712778567517" depart="0.00" departLane="0" departPos="1.61" departSpeed="max" arrivalLane="0" arrivalPos="12.24">
        <route edges="-gneE47 -gneE46 -gneE52 gneE33 gneE54 gneE42 gneE41 gneE33 gneE32 -gneE31"/>
    </vehicle>
    <vehicle id="-flow-random-route-abce046e-fd26-4c7e-9f3a-3cecbddf0827--2726113956409889533-12-0.0" type="actor-car--4621384712778567517" depart="0.00" departLane="0" departPos="6.67" departSpeed="max" arrivalLane="0" arrivalPos="15.41">
        <route edges="-gneE32 gneE54 gneE42 gneE41 gneE33 gneE32 -gneE31 -gneE48 -gneE47 -gneE50"/>
    </vehicle>
    <vehicle id="-flow-random-route-b8a43af5-20e9-43dd-8649-4d6d31d20bd2--2726113956409889533-15-0.0" type="actor-car--4621384712778567517" depart="0.00" departLane="0" departPos="25.78" departSpeed="max" arrivalLane="0" arrivalPos="105.75">
        <route edges="-gneE42 gneE44 gneE45 -gneE49 gneE31 -gneE32 gneE54 gneE44 -gneE51"/>
    </vehicle>
    <vehicle id="-flow-random-route-bc637226-f638-4202-89c1-aa05839c1882--2726113956409889533-8-0.0" type="actor-car--4621384712778567517" depart="0.00" departLane="0" departPos="49.35" departSpeed="max" arrivalLane="0" arrivalPos="8.90">
        <route edges="gneE52 -gneE49 -gneE48 -gneE47 -gneE46 -gneE52 gneE33 gneE32 -gneE31 gneE49"/>
    </vehicle>
    <vehicle id="-flow-random-route-c51e8d82-020c-4358-a4dd-f1077d6b1eab--2726113956409889533-26-0.0" type="actor-car--4621384712778567517" depart="0.00" departLane="0" departPos="21.95" departSpeed="max" arrivalLane="0" arrivalPos="33.36">
        <route edges="gneE45 -gneE52 gneE33 gneE54 gneE42 gneE41 gneE52 gneE46 gneE47 gneE48"/>
    </vehicle>
    <vehicle id="-flow-random-route-cba9cfe0-81a9-41f6-b31a-4984733023b1--2726113956409889533-20-0.0" type="actor-car--4621384712778567517" depart="0.00" departLane="0" departPos="21.21" departSpeed="max" arrivalLane="0" arrivalPos="26.22">
        <route edges="-gneE47 -gneE46 -gneE45 -gneE44 gneE42 gneE41 gneE52 -gneE49 gneE31 -gneE32"/>
    </vehicle>
    <vehicle id="-flow-random-route-e5c2c83f-f9d9-4913-a2c1-b4210845a4b3--2726113956409889533-27-0.0" type="actor-car--4621384712778567517" depart="0.00" departLane="0" departPos="8.21" departSpeed="max" arrivalLane="0" arrivalPos="24.31">
        <route edges="-gneE44 -gneE54 -gneE33 -gneE41 -gneE42 gneE44 gneE45 -gneE49 -gneE48 -gneE47"/>
    </vehicle>
    <vehicle id="-flow-random-route-e82628df-f9a4-4ae5-8771-3061272122f6--2726113956409889533-25-0.0" type="actor-car--4621384712778567517" depart="0.00" departLane="0" departPos="54.54" departSpeed="max" arrivalLane="0" arrivalPos="42.15">
        <route edges="gneE51 gneE45 -gneE49 gneE31 -gneE32"/>
    </vehicle>
    <vehicle id="-flow-random-route-f2384d5e-f4f5-4f58-9052-ec22153b8993--2726113956409889533-19-0.0" type="actor-car--4621384712778567517" depart="0.00" departLane="0" departPos="12.48" departSpeed="max" arrivalLane="0" arrivalPos="27.05">
        <route edges="gneE52 -gneE45 -gneE44 gneE42 gneE41 gneE52 -gneE45 -gneE51"/>
    </vehicle>
    <vehicle id="-flow-random-route-000da8a3-b14a-409a-ab90-3570cb2143cf--2726113956409889533-28-0.1" type="actor-car--4621384712778567517" depart="120.00" departLane="0" departPos="6.84" departSpeed="max" arrivalLane="0" arrivalPos="25.48">
        <route edges="-gneE52 gneE33 gneE32 -gneE31 gneE49 gneE46 gneE47 gneE48 gneE31 -gneE32"/>
    </vehicle>
    <vehicle id="-flow-random-route-0ac1dfdd-f5c9-45d4-8215-d90dc42f8beb--2726113956409889533-6-0.1" type="actor-car--4621384712778567517" depart="120.00" departLane="0" departPos="26.43" departSpeed="max" arrivalLane="0" arrivalPos="12.67">
        <route edges="gneE45 -gneE49 -gneE48 -gneE47 -gneE50 -gneE33 gneE52 -gneE45 -gneE44 gneE42"/>
    </vehicle>
    <vehicle id="-flow-random-route-0fbc4cc9-a71a-4f72-8310-d641f3a7d2a5--2726113956409889533-0-0.1" type="actor-car--4621384712778567517" depart="120.00" departLane="0" departPos="27.82" departSpeed="max" arrivalLane="0" arrivalPos="10.70">
        <route edges="gneE45 gneE46 -gneE50 gneE32 -gneE31 -gneE48 -gneE47 -gneE50 -gneE33 -gneE41"/>
    </vehicle>
    <vehicle id="-flow-random-route-1601de68-dcba-4230-a1f8-338d567ccd84--2726113956409889533-21-0.1" type="actor-car--4621384712778567517" depart="120.00" departLane="0" departPos="6.82" departSpeed="max" arrivalLane="0" arrivalPos="9.67">
        <route edges="-gneE52 -gneE41 -gneE42 gneE44 gneE45 gneE46 gneE47 gneE48 gneE49 -gneE52"/>
    </vehicle>
    <vehicle id="-flow-random-route-2510eaf5-24c1-4d82-b638-e068945038b3--2726113956409889533-11-0.1" type="actor-car--4621384712778567517" depart="120.00" departLane="0" departPos="23.80" departSpeed="max" arrivalLane="0" arrivalPos="16.30">
        <route edges="gneE33 gneE50 gneE47 gneE48 gneE49 gneE46 gneE47 gneE48 gneE49 -gneE52"/>
    </vehicle>
    <vehicle id="-flow-random-route-25a9a0dc-edc9-4a44-911f-815220a4d000--2726113956409889533-3-0.1" type="actor-car--4621384712778567517" depart="120.00" departLane="0" departPos="42.61" departSpeed="max" arrivalLane="0" arrivalPos="16.52">
        <route edges="gneE50 -gneE46 -gneE49 gneE31 -gneE32"/>
    </vehicle>
    <vehicle id="-flow-random-route-2b73598f-3fea-4c53-9bf2-9c781db40aad--2726113956409889533-10-0.1" type="actor-car--4621384712778567517" depart="120.00" departLane="0" departPos="31.14" departSpeed="max" arrivalLane="0" arrivalPos="70.61">
        <route edges="gneE46 gneE47 gneE48 gneE49 -gneE45 -gneE51"/>
    </vehicle>
    <vehicle id="-flow-random-route-42051a56-4f10-404b-a9b0-c2cf4264a150--2726113956409889533-29-0.1" type="actor-car--4621384712778567517" depart="120.00" departLane="0" departPos="36.34" departSpeed="max" arrivalLane="0" arrivalPos="28.86">
        <route edges="gneE49 -gneE45 -gneE51"/>
    </vehicle>
    <vehicle id="-flow-random-route-4a6e1c56-4bfe-4131-929f-14949c95c6e0--2726113956409889533-2-0.1" type="actor-car--4621384712778567517" depart="120.00" departLane="0" departPos="11.66" departSpeed="max" arrivalLane="0" arrivalPos="20.82">
        <route edges="-gneE46 -gneE52 -gneE41 -gneE42 -gneE54 gneE32 -gneE31 gneE49 -gneE52 gneE33"/>
    </vehicle>
    <vehicle id="-flow-random-route-4cd7b583-b6ce-406e-a082-0f03d7a983fc--2726113956409889533-17-0.1" type="actor-car--4621384712778567517" depart="120.00" departLane="0" departPos="43.25" departSpeed="max" arrivalLane="0" arrivalPos="5.35">
        <route edges="gneE48 gneE49 -gneE52 gneE33 gneE50"/>
    </vehicle>
    <vehicle id="-flow-random-route-4d71e825-584f-4335-811d-14d1afac85f2--2726113956409889533-4-0.1" type="actor-car--4621384712778567517" depart="120.00" departLane="0" departPos="55.33" departSpeed="max" arrivalLane="0" arrivalPos="9.31">
        <route edges="gneE52 -gneE49 gneE31 -gneE32 gneE54"/>
    </vehicle>
    <vehicle id="-flow-random-route-4e6b87ab-a76f-4da9-9994-958b67b5ced7--2726113956409889533-5-0.1" type="actor-car--4621384712778567517" depart="120.00" departLane="0" departPos="0.27" departSpeed="max" arrivalLane="0" arrivalPos="6.79">
        <route edges="gneE44 gneE45 -gneE49 -gneE48 -gneE47 -gneE46 -gneE45 -gneE44 -gneE54 -gneE33"/>
    </vehicle>
    <vehicle id="-flow-random-route-66823ca9-2660-4592-82db-2b15031da41a--2726113956409889533-22-0.1" type="actor-car--4621384712778567517" depart="120.00" departLane="0" departPos="26.96" departSpeed="max" arrivalLane="0" arrivalPos="2.80">
        <route edges="-gneE41 -gneE42 gneE44 gneE45 -gneE52"/>
    </vehicle>
    <vehicle id="-flow-random-route-82d84274-37cf-48e9-a8cb-82e522a252f8--2726113956409889533-18-0.1" type="actor-car--4621384712778567517" depart="120.00" departLane="0" departPos="17.65" departSpeed="max" arrivalLane="0" arrivalPos="16.95">
        <route edges="gneE33 gneE32 -gneE31 -gneE48 -gneE47"/>
    </vehicle>
    <vehicle id="-flow-random-route-853b65b7-7225-4200-bcf4-8c2f52ff8081--2726113956409889533-23-0.1" type="actor-car--4621384712778567517" depart="120.00" departLane="0" departPos="25.25" departSpeed="max" arrivalLane="0" arrivalPos="35.25">
        <route edges="gneE31 -gneE32 -gneE33 gneE52 -gneE49 -gneE48 -gneE47 -gneE50 gneE32 -gneE31"/>
    </vehicle>
    <vehicle id="-flow-random-route-89ec2171-7ab8-449b-a3b5-9b1d8010b0ee--2726113956409889533-16-0.1" type="actor-car--4621384712778567517" depart="120.00" departLane="0" departPos="13.93" departSpeed="max" arrivalLane="0" arrivalPos="52.42">
        <route edges="-gneE45 -gneE51"/>
    </vehicle>
    <vehicle id="-flow-random-route-9169faaf-91ba-4fac-8925-e3e475592411--2726113956409889533-13-0.1" type="actor-car--4621384712778567517" depart="120.00" departLane="0" departPos="21.03" departSpeed="max" arrivalLane="0" arrivalPos="24.89">
        <route edges="gneE49 -gneE52 -gneE41 -gneE42 -gneE54 gneE32 -gneE31 -gneE48 -gneE47 -gneE50"/>
    </vehicle>
    <vehicle id="-flow-random-route-98f1d63a-779c-4e29-83f8-f0c3894ef7e9--2726113956409889533-9-0.1" type="actor-car--4621384712778567517" depart="120.00" departLane="0" departPos="13.24" departSpeed="max" arrivalLane="0" arrivalPos="61.12">
        <route edges="-gneE31 gneE49 -gneE52 -gneE41 -gneE42 gneE44 -gneE51"/>
    </vehicle>
    <vehicle id="-flow-random-route-99f29546-4fd8-4917-8960-64600b4ea5d8--2726113956409889533-1-0.1" type="actor-car--4621384712778567517" depart="120.00" departLane="0" departPos="57.38" departSpeed="max" arrivalLane="0" arrivalPos="13.03">
        <route edges="gneE52 -gneE49 gneE31 -gneE32 gneE54 gneE44 gneE45 gneE46 gneE47 gneE48"/>
    </vehicle>
    <vehicle id="-flow-random-route-9d16b65e-33c7-4acd-abd3-982b53af14a0--2726113956409889533-14-0.1" type="actor-car--4621384712778567517" depart="120.00" departLane="0" departPos="31.42" departSpeed="max" arrivalLane="0" arrivalPos="4.77">
        <route edges="gneE46 gneE47 gneE48 gneE31 -gneE32"/>
    </vehicle>
    <vehicle id="-flow-random-route-a623759f-abfb-4c53-b3c8-0736b43dde3a--2726113956409889533-7-0.1" type="actor-car--4621384712778567517" depart="120.00" departLane="0" departPos="4.53" departSpeed="max" arrivalLane="0" arrivalPos="36.99">
        <route edges="gneE33 gneE54 gneE42 gneE41"/>
    </vehicle>
    <vehicle id="-flow-random-route-aa67b430-3d31-4ceb-82dd-f1d91791f311--2726113956409889533-24-0.1" type="actor-car--4621384712778567517" depart="120.00" departLane="0" departPos="1.61" departSpeed="max" arrivalLane="0" arrivalPos="12.24">
        <route edges="-gneE47 -gneE46 -gneE52 gneE33 gneE54 gneE42 gneE41 gneE33 gneE32 -gneE31"/>
    </vehicle>
    <vehicle id="-flow-random-route-abce046e-fd26-4c7e-9f3a-3cecbddf0827--2726113956409889533-12-0.1" type="actor-car--4621384712778567517" depart="120.00" departLane="0" departPos="6.67" departSpeed="max" arrivalLane="0" arrivalPos="15.41">
        <route edges="-gneE32 gneE54 gneE42 gneE41 gneE33 gneE32 -gneE31 -gneE48 -gneE47 -gneE50"/>
    </vehicle>
    <vehicle id="-flow-random-route-b8a43af5-20e9-43dd-8649-4d6d31d20bd2--2726113956409889533-15-0.1" type="actor-car--4621384712778567517" depart="120.00" departLane="0" departPos="25.78" departSpeed="max" arrivalLane="0" arrivalPos="105.75">
        <route edges="-gneE42 gneE44 gneE45 -gneE49 gneE31 -gneE32 gneE54 gneE44 -gneE51"/>
    </vehicle>
    <vehicle id="-flow-random-route-bc637226-f638-4202-89c1-aa05839c1882--2726113956409889533-8-0.1" type="actor-car--4621384712778567517" depart="120.00" departLane="0" departPos="49.35" departSpeed="max" arrivalLane="0" arrivalPos="8.90">
        <route edges="gneE52 -gneE49 -gneE48 -gneE47 -gneE46 -gneE52 gneE33 gneE32 -gneE31 gneE49"/>
    </vehicle>
    <vehicle id="-flow-random-route-c51e8d82-020c-4358-a4dd-f1077d6b1eab--2726113956409889533-26-0.1" type="actor-car--4621384712778567517" depart="120.00" departLane="0" departPos="21.95" departSpeed="max" arrivalLane="0" arrivalPos="33.36">
        <route edges="gneE45 -gneE52 gneE33 gneE54 gneE42 gneE41 gneE52 gneE46 gneE47 gneE48"/>
    </vehicle>
    <vehicle id="-flow-random-route-cba9cfe0-81a9-41f6-b31a-4984733023b1--2726113956409889533-20-0.1" type="actor-car--4621384712778567517" depart="120.00" departLane="0" departPos="21.21" departSpeed="max" arrivalLane="0" arrivalPos="26.22">
        <route edges="-gneE47 -gneE46 -gneE45 -gneE44 gneE42 gneE41 gneE52 -gneE49 gneE31 -gneE32"/>
    </vehicle>
    <vehicle id="-flow-random-route-e5c2c83f-f9d9-4913-a2c1-b4210845a4b3--2726113956409889533-27-0.1" type="actor-car--4621384712778567517" depart="120.00" departLane="0" departPos="8.21" departSpeed="max" arrivalLane="0" arrivalPos="24.31">
        <route edges="-gneE44 -gneE54 -gneE33 -gneE41 -gneE42 gneE44 gneE45 -gneE49 -gneE48 -gneE47"/>
    </vehicle>
    <vehicle id="-flow-random-route-e82628df-f9a4-4ae5-8771-3061272122f6--2726113956409889533-25-0.1" type="actor-car--4621384712778567517" depart="120.00" departLane="0" departPos="54.54" departSpeed="max" arrivalLane="0" arrivalPos="42.15">
        <route edges="gneE51 gneE45 -gneE49 gneE31 -gneE32"/>
    </vehicle>
    <vehicle id="-flow-random-route-f2384d5e-f4f5-4f58-9052-ec22153b8993--2726113956409889533-19-0.1" type="actor-car--4621384712778567517" depart="120.00" departLane="0" departPos="12.48" departSpeed="max" arrivalLane="0" arrivalPos="27.05">
        <route edges="gneE52 -gneE45 -gneE44 gneE42 gneE41 gneE52 -gneE45 -gneE51"/>
    </vehicle>
    <vehicle id="-flow-random-route-000da8a3-b14a-409a-ab90-3570cb2143cf--2726113956409889533-28-0.2" type="actor-car--4621384712778567517" depart="240.00" departLane="0" departPos="6.84" departSpeed="max" arrivalLane="0" arrivalPos="25.48">
        <route edges="-gneE52 gneE33 gneE32 -gneE31 gneE49 gneE46 gneE47 gneE48 gneE31 -gneE32"/>
    </vehicle>
    <vehicle id="-flow-random-route-0ac1dfdd-f5c9-45d4-8215-d90dc42f8beb--2726113956409889533-6-0.2" type="actor-car--4621384712778567517" depart="240.00" departLane="0" departPos="26.43" departSpeed="max" arrivalLane="0" arrivalPos="12.67">
        <route edges="gneE45 -gneE49 -gneE48 -gneE47 -gneE50 -gneE33 gneE52 -gneE45 -gneE44 gneE42"/>
    </vehicle>
    <vehicle id="-flow-random-route-0fbc4cc9-a71a-4f72-8310-d641f3a7d2a5--2726113956409889533-0-0.2" type="actor-car--4621384712778567517" depart="240.00" departLane="0" departPos="27.82" departSpeed="max" arrivalLane="0" arrivalPos="10.70">
        <route edges="gneE45 gneE46 -gneE50 gneE32 -gneE31 -gneE48 -gneE47 -gneE50 -gneE33 -gneE41"/>
    </vehicle>
    <vehicle id="-flow-random-route-1601de68-dcba-4230-a1f8-338d567ccd84--2726113956409889533-21-0.2" type="actor-car--4621384712778567517" depart="240.00" departLane="0" departPos="6.82" departSpeed="max" arrivalLane="0" arrivalPos="9.67">
        <route edges="-gneE52 -gneE41 -gneE42 gneE44 gneE45 gneE46 gneE47 gneE48 gneE49 -gneE52"/>
    </vehicle>
    <vehicle id="-flow-random-route-2510eaf5-24c1-4d82-b638-e068945038b3--2726113956409889533-11-0.2" type="actor-car--4621384712778567517" depart="240.00" departLane="0" departPos="23.80" departSpeed="max" arrivalLane="0" arrivalPos="16.30">
        <route edges="gneE33 gneE50 gneE47 gneE48 gneE49 gneE46 gneE47 gneE48 gneE49 -gneE52"/>
    </vehicle>
    <vehicle id="-flow-random-route-25a9a0dc-edc9-4a44-911f-815220a4d000--2726113956409889533-3-0.2" type="actor-car--4621384712778567517" depart="240.00" departLane="0" departPos="42.61" departSpeed="max" arrivalLane="0" arrivalPos="16.52">
        <route edges="gneE50 -gneE46 -gneE49 gneE31 -gneE32"/>
    </vehicle>
    <vehicle id="-flow-random-route-2b73598f-3fea-4c53-9bf2-9c781db40aad--2726113956409889533-10-0.2" type="actor-car--4621384712778567517" depart="240.00" departLane="0" departPos="31.14" departSpeed="max" arrivalLane="0" arrivalPos="70.61">
        <route edges="gneE46 gneE47 gneE48 gneE49 -gneE45 -gneE51"/>
    </vehicle>
    <vehicle id="-flow-random-route-42051a56-4f10-404b-a9b0-c2cf4264a150--2726113956409889533-29-0.2" type="actor-car--4621384712778567517" depart="240.00" departLane="0" departPos="36.34" departSpeed="max" arrivalLane="0" arrivalPos="28.86">
        <route edges="gneE49 -gneE45 -gneE51"/>
    </vehicle>
    <vehicle id="-flow-random-route-4a6e1c56-4bfe-4131-929f-14949c95c6e0--2726113956409889533-2-0.2" type="actor-car--4621384712778567517" depart="240.00" departLane="0" departPos="11.66" departSpeed="max" arrivalLane="0" arrivalPos="20.82">
        <route edges="-gneE46 -gneE52 -gneE41 -gneE42 -gneE54 gneE32 -gneE31 gneE49 -gneE52 gneE33"/>
    </vehicle>
    <vehicle id="-flow-random-route-4cd7b583-b6ce-406e-a082-0f03d7a983fc--2726113956409889533-17-0.2" type="actor-car--4621384712778567517" depart="240.00" departLane="0" departPos="43.25" departSpeed="max" arrivalLane="0" arrivalPos="5.35">
        <route edges="gneE48 gneE49 -gneE52 gneE33 gneE50"/>
    </vehicle>
    <vehicle id="-flow-random-route-4d71e825-584f-4335-811d-14d1afac85f2--2726113956409889533-4-0.2" type="actor-car--4621384712778567517" depart="240.00" departLane="0" departPos="55.33" departSpeed="max" arrivalLane="0" arrivalPos="9.31">
        <route edges="gneE52 -gneE49 gneE31 -gneE32 gneE54"/>
    </vehicle>
    <vehicle id="-flow-random-route-4e6b87ab-a76f-4da9-9994-958b67b5ced7--2726113956409889533-5-0.2" type="actor-car--4621384712778567517" depart="240.00" departLane="0" departPos="0.27" departSpeed="max" arrivalLane="0" arrivalPos="6.79">
        <route edges="gneE44 gneE45 -gneE49 -gneE48 -gneE47 -gneE46 -gneE45 -gneE44 -gneE54 -gneE33"/>
    </vehicle>
    <vehicle id="-flow-random-route-66823ca9-2660-4592-82db-2b15031da41a--2726113956409889533-22-0.2" type="actor-car--4621384712778567517" depart="240.00" departLane="0" departPos="26.96" departSpeed="max" arrivalLane="0" arrivalPos="2.80">
        <route edges="-gneE41 -gneE42 gneE44 gneE45 -gneE52"/>
    </vehicle>
    <vehicle id="-flow-random-route-82d84274-37cf-48e9-a8cb-82e522a252f8--2726113956409889533-18-0.2" type="actor-car--4621384712778567517" depart="240.00" departLane="0" departPos="17.65" departSpeed="max" arrivalLane="0" arrivalPos="16.95">
        <route edges="gneE33 gneE32 -gneE31 -gneE48 -gneE47"/>
    </vehicle>
    <vehicle id="-flow-random-route-853b65b7-7225-4200-bcf4-8c2f52ff8081--2726113956409889533-23-0.2" type="actor-car--4621384712778567517" depart="240.00" departLane="0" departPos="25.25" departSpeed="max" arrivalLane="0" arrivalPos="35.25">
        <route edges="gneE31 -gneE32 -gneE33 gneE52 -gneE49 -gneE48 -gneE47 -gneE50 gneE32 -gneE31"/>
    </vehicle>
    <vehicle id="-flow-random-route-89ec2171-7ab8-449b-a3b5-9b1d8010b0ee--2726113956409889533-16-0.2" type="actor-car--4621384712778567517" depart="240.00" departLane="0" departPos="13.93" departSpeed="max" arrivalLane="0" arrivalPos="52.42">
        <route edges="-gneE45 -gneE51"/>
    </vehicle>
    <vehicle id="-flow-random-route-9169faaf-91ba-4fac-8925-e3e475592411--2726113956409889533-13-0.2" type="actor-car--4621384712778567517" depart="240.00" departLane="0" departPos="21.03" departSpeed="max" arrivalLane="0" arrivalPos="24.89">
        <route edges="gneE49 -gneE52 -gneE41 -gneE42 -gneE54 gneE32 -gneE31 -gneE48 -gneE47 -gneE50"/>
    </vehicle>
    <vehicle id="-flow-random-route-98f1d63a-779c-4e29-83f8-f0c3894ef7e9--2726113956409889533-9-0.2" type="actor-car--4621384712778567517" depart="240.00" departLane="0" departPos="13.24" departSpeed="max" arrivalLane="0" arrivalPos="61.12">
        <route edges="-gneE31 gneE49 -gneE52 -gneE41 -gneE42 gneE44 -gneE51"/>
    </vehicle>
    <vehicle id="-flow-random-route-99f29546-4fd8-4917-8960-64600b4ea5d8--2726113956409889533-1-0.2" type="actor-car--4621384712778567517" depart="240.00" departLane="0" departPos="57.38" departSpeed="max" arrivalLane="0" arrivalPos="13.03">
        <route edges="gneE52 -gneE49 gneE31 -gneE32 gneE54 gneE44 gneE45 gneE46 gneE47 gneE48"/>
    </vehicle>
    <vehicle id="-flow-random-route-9d16b65e-33c7-4acd-abd3-982b53af14a0--2726113956409889533-14-0.2" type="actor-car--4621384712778567517" depart="240.00" departLane="0" departPos="31.42" departSpeed="max" arrivalLane="0" arrivalPos="4.77">
        <route edges="gneE46 gneE47 gneE48 gneE31 -gneE32"/>
    </vehicle>
    <vehicle id="-flow-random-route-a623759f-abfb-4c53-b3c8-0736b43dde3a--2726113956409889533-7-0.2" type="actor-car--4621384712778567517" depart="240.00" departLane="0" departPos="4.53" departSpeed="max" arrivalLane="0" arrivalPos="36.99">
        <route edges="gneE33 gneE54 gneE42 gneE41"/>
    </vehicle>
    <vehicle id="-flow-random-route-aa67b430-3d31-4ceb-82dd-f1d91791f311--2726113956409889533-24-0.2" type="actor-car--4621384712778567517" depart="240.00" departLane="0" departPos="1.61" departSpeed="max" arrivalLane="0" arrivalPos="12.24">
        <route edges="-gneE47 -gneE46 -gneE52 gneE33 gneE54 gneE42 gneE41 gneE33 gneE32 -gneE31"/>
    </vehicle>
    <vehicle id="-flow-random-route-abce046e-fd26-4c7e-9f3a-3cecbddf0827--2726113956409889533-12-0.2" type="actor-car--4621384712778567517" depart="240.00" departLane="0" departPos="6.67" departSpeed="max" arrivalLane="0" arrivalPos="15.41">
        <route edges="-gneE32 gneE54 gneE42 gneE41 gneE33 gneE32 -gneE31 -gneE48 -gneE47 -gneE50"/>
    </vehicle>
    <vehicle id="-flow-random-route-b8a43af5-20e9-43dd-8649-4d6d31d20bd2--2726113956409889533-15-0.2" type="actor-car--4621384712778567517" depart="240.00" departLane="0" departPos="25.78" departSpeed="max" arrivalLane="0" arrivalPos="105.75">
        <route edges="-gneE42 gneE44 gneE45 -gneE49 gneE31 -gneE32 gneE54 gneE44 -gneE51"/>
    </vehicle>