<?xml version="1.0" encoding="UTF-8"?>

<!-- generated on Sun Oct  4 03:11:29 2020 by Eclipse SUMO duarouter Version 1.6.0
<configuration xmlns:xsi="http://www.w3.org/2001/XMLSchema-instance" xsi:noNamespaceSchemaLocation="http://sumo.dlr.de/xsd/duarouterConfiguration.xsd">

    <input>
        <net-file value="/root/workspace/dataset_public/mixed_loop/its_merge_b/map.net.xml"/>
        <route-files value="/tmp/tmpmhzyylz_/trips.trips.xml"/>
    </input>

    <output>
        <output-file value="/root/workspace/dataset_public/mixed_loop/its_merge_b/traffic/32_patient_car_0.5_impatient_car_0.5.rou.xml"/>
        <alternatives-output value="/root/workspace/dataset_public/mixed_loop/its_merge_b/traffic/32_patient_car_0.5_impatient_car_0.5.rou.alt.xml"/>
    </output>

    <processing>
        <unsorted-input value="true"/>
        <repair value="true"/>
    </processing>

    <report>
        <error-log value="/tmp/smarts/_duarouter_routing/traffic/32_patient_car_0.5_impatient_car_0.5.log"/>
        <no-step-log value="true"/>
    </report>

    <random_number>
        <seed value="287"/>
    </random_number>

</configuration>
-->

<routes xmlns:xsi="http://www.w3.org/2001/XMLSchema-instance" xsi:noNamespaceSchemaLocation="http://sumo.dlr.de/xsd/routes_file.xsd">
    <vType id="actor-impatient_car-8331141053905785892" minGap="2.50" speedFactor="normc(0.50,0.20,0.20,2.00)" vClass="passenger" impatience="0.50" lcCooperative="0.5" lcImpatience="0" jmDriveAfterYellowTime="1.0" accel="2.6" decel="4.5" sigma="0.5"/>
    <vehicle id="-flow-random-route-0e27bea3-19bf-4edb-951b-ecce8917f4e2-8920379870651371124-0-0.0" type="actor-impatient_car-8331141053905785892" depart="0.00" departLane="0" departPos="69.64" departSpeed="max" arrivalLane="0" arrivalPos="95.14">
        <route edges="gneE97 gneE120 gneE121 gneE110 gneE112 gneE117 gneE118 gneE119 -gneE121 -gneE120"/>
    </vehicle>
    <vType id="actor-patient_car-6171021832865870412" minGap="2.50" speedFactor="normc(0.50,0.20,0.20,2.00)" vClass="passenger" impatience="1.00" lcCooperative="0.25" lcImpatience="1" jmDriveAfterYellowTime="1.0" jmDriveAfterRedTime="1.5" accel="2.6" decel="4.5" sigma="0.5"/>
    <vehicle id="-flow-random-route-0e27bea3-19bf-4edb-951b-ecce8917f4e2-8920379870651371124-0-1.0" type="actor-patient_car-6171021832865870412" depart="0.00" departLane="0" departPos="69.64" departSpeed="max" arrivalLane="0" arrivalPos="95.14">
        <route edges="gneE97 gneE120 gneE121 gneE110 gneE112 gneE117 gneE118 gneE119 -gneE121 -gneE120"/>
    </vehicle>
    <vehicle id="-flow-random-route-179083a3-532e-41f3-807f-e6b38ac4a03c-8920379870651371124-6-0.0" type="actor-impatient_car-8331141053905785892" depart="0.00" departLane="0" departPos="24.05" departSpeed="max" arrivalLane="0" arrivalPos="3.97">
        <route edges="gneE120 gneE121 gneE110 gneE111"/>
    </vehicle>
    <vehicle id="-flow-random-route-179083a3-532e-41f3-807f-e6b38ac4a03c-8920379870651371124-6-1.0" type="actor-patient_car-6171021832865870412" depart="0.00" departLane="0" departPos="24.05" departSpeed="max" arrivalLane="0" arrivalPos="3.97">
        <route edges="gneE120 gneE121 gneE110 gneE111"/>
    </vehicle>
    <vehicle id="-flow-random-route-223b9455-5e61-4f12-8bd1-9fb6573accb1-8920379870651371124-5-0.0" type="actor-impatient_car-8331141053905785892" depart="0.00" departLane="0" departPos="32.52" departSpeed="max" arrivalLane="0" arrivalPos="90.69">
        <route edges="gneE117 gneE118 gneE119"/>
    </vehicle>
    <vehicle id="-flow-random-route-223b9455-5e61-4f12-8bd1-9fb6573accb1-8920379870651371124-5-1.0" type="actor-patient_car-6171021832865870412" depart="0.00" departLane="0" departPos="32.52" departSpeed="max" arrivalLane="0" arrivalPos="90.69">
        <route edges="gneE117 gneE118 gneE119"/>
    </vehicle>
    <vehicle id="-flow-random-route-2355eea7-d332-4d54-b363-39237a637192-8920379870651371124-15-0.0" type="actor-impatient_car-8331141053905785892" depart="0.00" departLane="0" departPos="40.34" departSpeed="max" arrivalLane="0" arrivalPos="85.33">
        <route edges="-gneE118 -gneE117 -gneE112 -gneE110 -gneE119 -gneE118 -gneE117 -gneE112 -gneE110 -gneE121"/>
    </vehicle>
    <vehicle id="-flow-random-route-2355eea7-d332-4d54-b363-39237a637192-8920379870651371124-15-1.0" type="actor-patient_car-6171021832865870412" depart="0.00" departLane="0" departPos="40.34" departSpeed="max" arrivalLane="0" arrivalPos="85.33">
        <route edges="-gneE118 -gneE117 -gneE112 -gneE110 -gneE119 -gneE118 -gneE117 -gneE112 -gneE110 -gneE121"/>
    </vehicle>
    <vehicle id="-flow-random-route-24b0be30-3d95-4f13-bec6-625f8baeda36-8920379870651371124-8-0.0" type="actor-impatient_car-8331141053905785892" depart="0.00" departLane="0" departPos="102.72" departSpeed="max" arrivalLane="0" arrivalPos="159.25">
        <route edges="-gneE112 gneE111 gneE97 gneE120 gneE121 gneE110 gneE112 gneE117 gneE118 gneE119"/>
    </vehicle>
    <vehicle id="-flow-random-route-24b0be30-3d95-4f13-bec6-625f8baeda36-8920379870651371124-8-1.0" type="actor-patient_car-6171021832865870412" depart="0.00" departLane="0" departPos="102.72" departSpeed="max" arrivalLane="0" arrivalPos="159.25">
        <route edges="-gneE112 gneE111 gneE97 gneE120 gneE121 gneE110 gneE112 gneE117 gneE118 gneE119"/>
    </vehicle>
    <vehicle id="-flow-random-route-2df0ac48-e73f-465b-82d4-e368ed56ae4c-8920379870651371124-12-0.0" type="actor-impatient_car-8331141053905785892" depart="0.00" departLane="0" departPos="35.29" departSpeed="max" arrivalLane="0" arrivalPos="10.71">
        <route edges="gneE112 -gneE93 gneE97 gneE120 gneE121"/>
    </vehicle>
    <vehicle id="-flow-random-route-2df0ac48-e73f-465b-82d4-e368ed56ae4c-8920379870651371124-12-1.0" type="actor-patient_car-6171021832865870412" depart="0.00" departLane="0" departPos="35.29" departSpeed="max" arrivalLane="0" arrivalPos="10.71">
        <route edges="gneE112 -gneE93 gneE97 gneE120 gneE121"/>
    </vehicle>
    <vehicle id="-flow-random-route-572dc85e-2508-456f-b0a5-47bbf1b3510e-8920379870651371124-3-0.0" type="actor-impatient_car-8331141053905785892" depart="0.00" departLane="0" departPos="23.10" departSpeed="max" arrivalLane="0" arrivalPos="43.60">
        <route edges="gneE121 gneE110 gneE112 gneE117 gneE118 gneE119 gneE110 gneE111 gneE97 gneE120"/>
    </vehicle>
    <vehicle id="-flow-random-route-572dc85e-2508-456f-b0a5-47bbf1b3510e-8920379870651371124-3-1.0" type="actor-patient_car-6171021832865870412" depart="0.00" departLane="0" departPos="23.10" departSpeed="max" arrivalLane="0" arrivalPos="43.60">
        <route edges="gneE121 gneE110 gneE112 gneE117 gneE118 gneE119 gneE110 gneE111 gneE97 gneE120"/>
    </vehicle>
    <vehicle id="-flow-random-route-716771b1-fe6d-4177-83d0-3ce6331da626-8920379870651371124-9-0.0" type="actor-impatient_car-8331141053905785892" depart="0.00" departLane="0" departPos="71.36" departSpeed="max" arrivalLane="0" arrivalPos="26.64">
        <route edges="-gneE118 -gneE117 -gneE112 -gneE110 -gneE119 -gneE118 -gneE117 -gneE112 gneE111 gneE93"/>
    </vehicle>
    <vehicle id="-flow-random-route-716771b1-fe6d-4177-83d0-3ce6331da626-8920379870651371124-9-1.0" type="actor-patient_car-6171021832865870412" depart="0.00" departLane="0" departPos="71.36" departSpeed="max" arrivalLane="0" arrivalPos="26.64">
        <route edges="-gneE118 -gneE117 -gneE112 -gneE110 -gneE119 -gneE118 -gneE117 -gneE112 gneE111 gneE93"/>
    </vehicle>
    <vehicle id="-flow-random-route-94191094-1d8c-498b-a9ef-9e587079da95-8920379870651371124-4-0.0" type="actor-impatient_car-8331141053905785892" depart="0.00" departLane="0" departPos="36.51" departSpeed="max" arrivalLane="0" arrivalPos="23.10">
        <route edges="gneE112 gneE117 gneE118 gneE119 gneE110 gneE112 -gneE93 gneE97 gneE120 gneE121"/>
    </vehicle>
    <vehicle id="-flow-random-route-94191094-1d8c-498b-a9ef-9e587079da95-8920379870651371124-4-1.0" type="actor-patient_car-6171021832865870412" depart="0.00" departLane="0" departPos="36.51" departSpeed="max" arrivalLane="0" arrivalPos="23.10">
        <route edges="gneE112 gneE117 gneE118 gneE119 gneE110 gneE112 -gneE93 gneE97 gneE120 gneE121"/>
    </vehicle>
    <vehicle id="-flow-random-route-99ff4e5b-a232-4eb5-a5d8-e71de7aa6d6d-8920379870651371124-7-0.0" type="actor-impatient_car-8331141053905785892" depart="0.00" departLane="0" departPos="50.04" departSpeed="max" arrivalLane="0" arrivalPos="89.08">
        <route edges="gneE121 -gneE119 -gneE118 -gneE117 -gneE112 gneE111 gneE93 gneE117 gneE118 gneE119"/>
    </vehicle>
    <vehicle id="-flow-random-route-99ff4e5b-a232-4eb5-a5d8-e71de7aa6d6d-8920379870651371124-7-1.0" type="actor-patient_car-6171021832865870412" depart="0.00" departLane="0" departPos="50.04" departSpeed="max" arrivalLane="0" arrivalPos="89.08">
        <route edges="gneE121 -gneE119 -gneE118 -gneE117 -gneE112 gneE111 gneE93 gneE117 gneE118 gneE119"/>
    </vehicle>
    <vehicle id="-flow-random-route-a09ec275-e59f-4ed1-8770-9f3a2bfd1026-8920379870651371124-13-0.0" type="actor-impatient_car-8331141053905785892" depart="0.00" departLane="0" departPos="31.82" departSpeed="max" arrivalLane="0" arrivalPos="13.55">
        <route edges="gneE120 gneE121 gneE110 gneE112 gneE117 gneE118 gneE119 -gneE121 -gneE120 -gneE97"/>
    </vehicle>
    <vehicle id="-flow-random-route-a09ec275-e59f-4ed1-8770-9f3a2bfd1026-8920379870651371124-13-1.0" type="actor-patient_car-6171021832865870412" depart="0.00" departLane="0" departPos="31.82" departSpeed="max" arrivalLane="0" arrivalPos="13.55">
        <route edges="gneE120 gneE121 gneE110 gneE112 gneE117 gneE118 gneE119 -gneE121 -gneE120 -gneE97"/>
    </vehicle>
    <vehicle id="-flow-random-route-a211edd7-a396-4b72-8f04-94f4d9626626-8920379870651371124-1-0.0" type="actor-impatient_car-8331141053905785892" depart="0.00" departLane="0" departPos="58.73" departSpeed="max" arrivalLane="0" arrivalPos="9.28">
        <route edges="-gneE110 -gneE121 -gneE120 -gneE97 -gneE111 -gneE110 -gneE119 -gneE118 -gneE117 -gneE112"/>
    </vehicle>
    <vehicle id="-flow-random-route-a211edd7-a396-4b72-8f04-94f4d9626626-8920379870651371124-1-1.0" type="actor-patient_car-6171021832865870412" depart="0.00" departLane="0" departPos="58.73" departSpeed="max" arrivalLane="0" arrivalPos="9.28">
        <route edges="-gneE110 -gneE121 -gneE120 -gneE97 -gneE111 -gneE110 -gneE119 -gneE118 -gneE117 -gneE112"/>
    </vehicle>
    <vehicle id="-flow-random-route-dd385007-e39d-4869-90de-65911420fb9e-8920379870651371124-10-0.0" type="actor-impatient_car-8331141053905785892" depart="0.00" departLane="0" departPos="15.46" departSpeed="max" arrivalLane="0" arrivalPos="80.10">
        <route edges="-gneE110 -gneE121 -gneE120"/>
    </vehicle>
    <vehicle id="-flow-random-route-dd385007-e39d-4869-90de-65911420fb9e-8920379870651371124-10-1.0" type="actor-patient_car-6171021832865870412" depart="0.00" departLane="0" departPos="15.46" departSpeed="max" arrivalLane="0" arrivalPos="80.10">
        <route edges="-gneE110 -gneE121 -gneE120"/>
    </vehicle>
    <vehicle id="-flow-random-route-eec9c26f-2961-460d-9ee2-d93380ace91c-8920379870651371124-14-0.0" type="actor-impatient_car-8331141053905785892" depart="0.00" departLane="0" departPos="23.44" departSpeed="max" arrivalLane="0" arrivalPos="45.60">
        <route edges="-gneE93 gneE97 gneE120 gneE121 gneE110 gneE112 -gneE93 -gneE111 -gneE110 -gneE121"/>
    </vehicle>
    <vehicle id="-flow-random-route-eec9c26f-2961-460d-9ee2-d93380ace91c-8920379870651371124-14-1.0" type="actor-patient_car-6171021832865870412" depart="0.00" departLane="0" departPos="23.44" departSpeed="max" arrivalLane="0" arrivalPos="45.60">
        <route edges="-gneE93 gneE97 gneE120 gneE121 gneE110 gneE112 -gneE93 -gneE111 -gneE110 -gneE121"/>
    </vehicle>
    <vehicle id="-flow-random-route-f25ef1a8-935e-4917-a247-314532a00aab-8920379870651371124-2-0.0" type="actor-impatient_car-8331141053905785892" depart="0.00" departLane="0" departPos="101.65" departSpeed="max" arrivalLane="0" arrivalPos="77.79">
        <route edges="gneE120 gneE121 -gneE119 -gneE118"/>
    </vehicle>
    <vehicle id="-flow-random-route-f25ef1a8-935e-4917-a247-314532a00aab-8920379870651371124-2-1.0" type="actor-patient_car-6171021832865870412" depart="0.00" departLane="0" departPos="101.65" departSpeed="max" arrivalLane="0" arrivalPos="77.79">
        <route edges="gneE120 gneE121 -gneE119 -gneE118"/>
    </vehicle>
    <vehicle id="-flow-random-route-f62b2dbb-c222-40e0-b89d-5891f635149f-8920379870651371124-11-0.0" type="actor-impatient_car-8331141053905785892" depart="0.00" departLane="0" departPos="47.48" departSpeed="max" arrivalLane="0" arrivalPos="1.31">
        <route edges="gneE110 gneE112 gneE117 gneE118 gneE119 -gneE121 -gneE120 -gneE97 -gneE111 -gneE110"/>
    </vehicle>
    <vehicle id="-flow-random-route-f62b2dbb-c222-40e0-b89d-5891f635149f-8920379870651371124-11-1.0" type="actor-patient_car-6171021832865870412" depart="0.00" departLane="0" departPos="47.48" departSpeed="max" arrivalLane="0" arrivalPos="1.31">
        <route edges="gneE110 gneE112 gneE117 gneE118 gneE119 -gneE121 -gneE120 -gneE97 -gneE111 -gneE110"/>
    </vehicle>
    <vehicle id="-flow-random-route-0e27bea3-19bf-4edb-951b-ecce8917f4e2-8920379870651371124-0-0.1" type="actor-impatient_car-8331141053905785892" depart="240.00" departLane="0" departPos="69.64" departSpeed="max" arrivalLane="0" arrivalPos="95.14">
        <route edges="gneE97 gneE120 gneE121 gneE110 gneE112 gneE117 gneE118 gneE119 -gneE121 -gneE120"/>
    </vehicle>
    <vehicle id="-flow-random-route-0e27bea3-19bf-4edb-951b-ecce8917f4e2-8920379870651371124-0-1.1" type="actor-patient_car-6171021832865870412" depart="240.00" departLane="0" departPos="69.64" departSpeed="max" arrivalLane="0" arrivalPos="95.14">
        <route edges="gneE97 gneE120 gneE121 gneE110 gneE112 gneE117 gneE118 gneE119 -gneE121 -gneE120"/>
    </vehicle>
    <vehicle id="-flow-random-route-179083a3-532e-41f3-807f-e6b38ac4a03c-8920379870651371124-6-0.1" type="actor-impatient_car-8331141053905785892" depart="240.00" departLane="0" departPos="24.05" departSpeed="max" arrivalLane="0" arrivalPos="3.97">
        <route edges="gneE120 gneE121 gneE110 gneE111"/>
    </vehicle>
    <vehicle id="-flow-random-route-179083a3-532e-41f3-807f-e6b38ac4a03c-8920379870651371124-6-1.1" type="actor-patient_car-6171021832865870412" depart="240.00" departLane="0" departPos="24.05" departSpeed="max" arrivalLane="0" arrivalPos="3.97">
        <route edges="gneE120 gneE121 gneE110 gneE111"/>
    </vehicle>
    <vehicle id="-flow-random-route-223b9455-5e61-4f12-8bd1-9fb6573accb1-8920379870651371124-5-0.1" type="actor-impatient_car-8331141053905785892" depart="240.00" departLane="0" departPos="32.52" departSpeed="max" arrivalLane="0" arrivalPos="90.69">
        <route edges="gneE117 gneE118 gneE119"/>
    </vehicle>
    <vehicle id="-flow-random-route-223b9455-5e61-4f12-8bd1-9fb6573accb1-8920379870651371124-5-1.1" type="actor-patient_car-6171021832865870412" depart="240.00" departLane="0" departPos="32.52" departSpeed="max" arrivalLane="0" arrivalPos="90.69">
        <route edges="gneE117 gneE118 gneE119"/>
    </vehicle>
    <vehicle id="-flow-random-route-2355eea7-d332-4d54-b363-39237a637192-8920379870651371124-15-0.1" type="actor-impatient_car-8331141053905785892" depart="240.00" departLane="0" departPos="40.34" departSpeed="max" arrivalLane="0" arrivalPos="85.33">
        <route edges="-gneE118 -gneE117 -gneE112 -gneE110 -gneE119 -gneE118 -gneE117 -gneE112 -gneE110 -gneE121"/>
    </vehicle>
    <vehicle id="-flow-random-route-2355eea7-d332-4d54-b363-39237a637192-8920379870651371124-15-1.1" type="actor-patient_car-6171021832865870412" depart="240.00" departLane="0" departPos="40.34" departSpeed="max" arrivalLane="0" arrivalPos="85.33">
        <route edges="-gneE118 -gneE117 -gneE112 -gneE110 -gneE119 -gneE118 -gneE117 -gneE112 -gneE110 -gneE121"/>
    </vehicle>
    <vehicle id="-flow-random-route-24b0be30-3d95-4f13-bec6-625f8baeda36-8920379870651371124-8-0.1" type="actor-impatient_car-8331141053905785892" depart="240.00" departLane="0" departPos="102.72" departSpeed="max" arrivalLane="0" arrivalPos="159.25">
        <route edges="-gneE112 gneE111 gneE97 gneE120 gneE121 gneE110 gneE112 gneE117 gneE118 gneE119"/>
    </vehicle>
    <vehicle id="-flow-random-route-24b0be30-3d95-4f13-bec6-625f8baeda36-8920379870651371124-8-1.1" type="actor-patient_car-6171021832865870412" depart="240.00" departLane="0" departPos="102.72" departSpeed="max" arrivalLane="0" arrivalPos="159.25">
        <route edges="-gneE112 gneE111 gneE97 gneE120 gneE121 gneE110 gneE112 gneE117 gneE118 gneE119"/>
    </vehicle>
    <vehicle id="-flow-random-route-2df0ac48-e73f-465b-82d4-e368ed56ae4c-8920379870651371124-12-0.1" type="actor-impatient_car-8331141053905785892" depart="240.00" departLane="0" departPos="35.29" departSpeed="max" arrivalLane="0" arrivalPos="10.71">
        <route edges="gneE112 -gneE93 gneE97 gneE120 gneE121"/>
    </vehicle>
    <vehicle id="-flow-random-route-2df0ac48-e73f-465b-82d4-e368ed56ae4c-8920379870651371124-12-1.1" type="actor-patient_car-6171021832865870412" depart="240.00" departLane="0" departPos="35.29" departSpeed="max" arrivalLane="0" arrivalPos="10.71">
        <route edges="gneE112 -gneE93 gneE97 gneE120 gneE121"/>
    </vehicle>
    <vehicle id="-flow-random-route-572dc85e-2508-456f-b0a5-47bbf1b3510e-8920379870651371124-3-0.1" type="actor-impatient_car-8331141053905785892" depart="240.00" departLane="0" departPos="23.10" departSpeed="max" arrivalLane="0" arrivalPos="43.60">
        <route edges="gneE121 gneE110 gneE112 gneE117 gneE118 gneE119 gneE110 gneE111 gneE97 gneE120"/>
    </vehicle>
    <vehicle id="-flow-random-route-572dc85e-2508-456f-b0a5-47bbf1b3510e-8920379870651371124-3-1.1" type="actor-patient_car-6171021832865870412" depart="240.00" departLane="0" departPos="23.10" departSpeed="max" arrivalLane="0" arrivalPos="43.60">
        <route edges="gneE121 gneE110 gneE112 gneE117 gneE118 gneE119 gneE110 gneE111 gneE97 gneE120"/>
    </vehicle>
    <vehicle id="-flow-random-route-716771b1-fe6d-4177-83d0-3ce6331da626-8920379870651371124-9-0.1" type="actor-impatient_car-8331141053905785892" depart="240.00" departLane="0" departPos="71.36" departSpeed="max" arrivalLane="0" arrivalPos="26.64">
        <route edges="-gneE118 -gneE117 -gneE112 -gneE110 -gneE119 -gneE118 -gneE117 -gneE112 gneE111 gneE93"/>
    </vehicle>
    <vehicle id="-flow-random-route-716771b1-fe6d-4177-83d0-3ce6331da626-8920379870651371124-9-1.1" type="actor-patient_car-6171021832865870412" depart="240.00" departLane="0" departPos="71.36" departSpeed="max" arrivalLane="0" arrivalPos="26.64">
        <route edges="-gneE118 -gneE117 -gneE112 -gneE110 -gneE119 -gneE118 -gneE117 -gneE112 gneE111 gneE93"/>
    </vehicle>
    <vehicle id="-flow-random-route-94191094-1d8c-498b-a9ef-9e587079da95-8920379870651371124-4-0.1" type="actor-impatient_car-8331141053905785892" depart="240.00" departLane="0" departPos="36.51" departSpeed="max" arrivalLane="0" arrivalPos="23.10">
        <route edges="gneE112 gneE117 gneE118 gneE119 gneE110 gneE112 -gneE93 gneE97 gneE120 gneE121"/>
    </vehicle>
    <vehicle id="-flow-random-route-94191094-1d8c-498b-a9ef-9e587079da95-8920379870651371124-4-1.1" type="actor-patient_car-6171021832865870412" depart="240.00" departLane="0" departPos="36.51" departSpeed="max" arrivalLane="0" arrivalPos="23.10">
        <route edges="gneE112 gneE117 gneE118 gneE119 gneE110 gneE112 -gneE93 gneE97 gneE120 gneE121"/>
    </vehicle>
    <vehicle id="-flow-random-route-99ff4e5b-a232-4eb5-a5d8-e71de7aa6d6d-8920379870651371124-7-0.1" type="actor-impatient_car-8331141053905785892" depart="240.00" departLane="0" departPos="50.04" departSpeed="max" arrivalLane="0" arrivalPos="89.08">
        <route edges="gneE121 -gneE119 -gneE118 -gneE117 -gneE112 gneE111 gneE93 gneE117 gneE118 gneE119"/>
    </vehicle>
    <vehicle id="-flow-random-route-99ff4e5b-a232-4eb5-a5d8-e71de7aa6d6d-8920379870651371124-7-1.1" type="actor-patient_car-6171021832865870412" depart="240.00" departLane="0" departPos="50.04" departSpeed="max" arrivalLane="0" arrivalPos="89.08">
        <route edges="gneE121 -gneE119 -gneE118 -gneE117 -gneE112 gneE111 gneE93 gneE117 gneE118 gneE119"/>
    </vehicle>
    <vehicle id="-flow-random-route-a09ec275-e59f-4ed1-8770-9f3a2bfd1026-8920379870651371124-13-0.1" type="actor-impatient_car-8331141053905785892" depart="240.00" departLane="0" departPos="31.82" departSpeed="max" arrivalLane="0" arrivalPos="13.55">
        <route edges="gneE120 gneE121 gneE110 gneE112 gneE117 gneE118 gneE119 -gneE121 -gneE120 -gneE97"/>
    </vehicle>
    <vehicle id="-flow-random-route-a09ec275-e59f-4ed1-8770-9f3a2bfd1026-8920379870651371124-13-1.1" type="actor-patient_car-6171021832865870412" depart="240.00" departLane="0" departPos="31.82" departSpeed="max" arrivalLane="0" arrivalPos="13.55">
        <route edges="gneE120 gneE121 gneE110 gneE112 gneE117 gneE118 gneE119 -gneE121 -gneE120 -gneE97"/>
    </vehicle>
    <vehicle id="-flow-random-route-a211edd7-a396-4b72-8f04-94f4d9626626-8920379870651371124-1-0.1" type="actor-impatient_car-8331141053905785892" depart="240.00" departLane="0" departPos="58.73" departSpeed="max" arrivalLane="0" arrivalPos="9.28">
        <route edges="-gneE110 -gneE121 -gneE120 -gneE97 -gneE111 -gneE110 -gneE119 -gneE118 -gneE117 -gneE112"/>
    </vehicle>
    <vehicle id="-flow-random-route-a211edd7-a396-4b72-8f04-94f4d9626626-8920379870651371124-1-1.1" type="actor-patient_car-6171021832865870412" depart="240.00" departLane="0" departPos="58.73" departSpeed="max" arrivalLane="0" arrivalPos="9.28">
        <route edges="-gneE110 -gneE121 -gneE120 -gneE97 -gneE111 -gneE110 -gneE119 -gneE118 -gneE117 -gneE112"/>
    </vehicle>
    <vehicle id="-flow-random-route-dd385007-e39d-4869-90de-65911420fb9e-8920379870651371124-10-0.1" type="actor-impatient_car-8331141053905785892" depart="240.00" departLane="0" departPos="15.46" departSpeed="max" arrivalLane="0" arrivalPos="80.10">
        <route edges="-gneE110 -gneE121 -gneE120"/>
    </vehicle>
    <vehicle id="-flow-random-route-dd385007-e39d-4869-90de-65911420fb9e-8920379870651371124-10-1.1" type="actor-patient_car-6171021832865870412" depart="240.00" departLane="0" departPos="15.46" departSpeed="max" arrivalLane="0" arrivalPos="80.10">
        <route edges="-gneE110 -gneE121 -gneE120"/>
    </vehicle>
    <vehicle id="-flow-random-route-eec9c26f-2961-460d-9ee2-d93380ace91c-8920379870651371124-14-0.1" type="actor-impatient_car-8331141053905785892" depart="240.00" departLane="0" departPos="23.44" departSpeed="max" arrivalLane="0" arrivalPos="45.60">
        <route edges="-gneE93 gneE97 gneE120 gneE121 gneE110 gneE112 -gneE93 -gneE111 -gneE110 -gneE121"/>
    </vehicle>
    <vehicle id="-flow-random-route-eec9c26f-2961-460d-9ee2-d93380ace91c-8920379870651371124-14-1.1" type="actor-patient_car-6171021832865870412" depart="240.00" departLane="0" departPos="23.44" departSpeed="max" arrivalLane="0" arrivalPos="45.60">
        <route edges="-gneE93 gneE97 gneE120 gneE121 gneE110 gneE112 -gneE93 -gneE111 -gneE110 -gneE121"/>
    </vehicle>
    <vehicle id="-flow-random-route-f25ef1a8-935e-4917-a247-314532a00aab-8920379870651371124-2-0.1" type="actor-impatient_car-8331141053905785892" depart="240.00" departLane="0" departPos="101.65" departSpeed="max" arrivalLane="0" arrivalPos="77.79">
        <route edges="gneE120 gneE121 -gneE119 -gneE118"/>
    </vehicle>
    <vehicle id="-flow-random-route-f25ef1a8-935e-4917-a247-314532a00aab-8920379870651371124-2-1.1" type="actor-patient_car-6171021832865870412" depart="240.00" departLane="0" departPos="101.65" departSpeed="max" arrivalLane="0" arrivalPos="77.79">
        <route edges="gneE120 gneE121 -gneE119 -gneE118"/>
    </vehicle>
    <vehicle id="-flow-random-route-f62b2dbb-c222-40e0-b89d-5891f635149f-8920379870651371124-11-0.1" type="actor-impatient_car-8331141053905785892" depart="240.00" departLane="0" departPos="47.48" departSpeed="max" arrivalLane="0" arrivalPos="1.31">
        <route edges="gneE110 gneE112 gneE117 gneE118 gneE119 -gneE121 -gneE120 -gneE97 -gneE111 -gneE110"/>
    </vehicle>
    <vehicle id="-flow-random-route-f62b2dbb-c222-40e0-b89d-5891f635149f-8920379870651371124-11-1.1" type="actor-patient_car-6171021832865870412" depart="240.00" departLane="0" departPos="47.48" departSpeed="max" arrivalLane="0" arrivalPos="1.31">
        <route edges="gneE110 gneE112 gneE117 gneE118 gneE119 -gneE121 -gneE120 -gneE97 -gneE111 -gneE110"/>
    </vehicle>
    <vehicle id="-flow-random-route-0e27bea3-19bf-4edb-951b-ecce8917f4e2-8920379870651371124-0-0.2" type="actor-impatient_car-8331141053905785892" depart="480.00" departLane="0" departPos="69.64" departSpeed="max" arrivalLane="0" arrivalPos="95.14">
        <route edges="gneE97 gneE120 gneE121 gneE110 gneE112 gneE117 gneE118 gneE119 -gneE121 -gneE120"/>
    </vehicle>
    <vehicle id="-flow-random-route-0e27bea3-19bf-4edb-951b-ecce8917f4e2-8920379870651371124-0-1.2" type="actor-patient_car-6171021832865870412" depart="480.00" departLane="0" departPos="69.64" departSpeed="max" arrivalLane="0" arrivalPos="95.14">
        <route edges="gneE97 gneE120 gneE121 gneE110 gneE112 gneE117 gneE118 gneE119 -gneE121 -gneE120"/>
    </vehicle>
    <vehicle id="-flow-random-route-179083a3-532e-41f3-807f-e6b38ac4a03c-8920379870651371124-6-0.2" type="actor-impatient_car-8331141053905785892" depart="480.00" departLane="0" departPos="24.05" departSpeed="max" arrivalLane="0" arrivalPos="3.97">
        <route edges="gneE120 gneE121 gneE110 gneE111"/>
    </vehicle>
    <vehicle id="-flow-random-route-179083a3-532e-41f3-807f-e6b38ac4a03c-8920379870651371124-6-1.2" type="actor-patient_car-6171021832865870412" depart="480.00" departLane="0" departPos="24.05" departSpeed="max" arrivalLane="0" arrivalPos="3.97">
        <route edges="gneE120 gneE121 gneE110 gneE111"/>
    </vehicle>
    <vehicle id="-flow-random-route-223b9455-5e61-4f12-8bd1-9fb6573accb1-8920379870651371124-5-0.2" type="actor-impatient_car-8331141053905785892" depart="480.00" departLane="0" departPos="32.52" departSpeed="max" arrivalLane="0" arrivalPos="90.69">
        <route edges="gneE117 gneE118 gneE119"/>
    </vehicle>
    <vehicle id="-flow-random-route-223b9455-5e61-4f12-8bd1-9fb6573accb1-8920379870651371124-5-1.2" type="actor-patient_car-6171021832865870412" depart="480.00" departLane="0" departPos="32.52" departSpeed="max" arrivalLane="0" arrivalPos="90.69">
        <route edges="gneE117 gneE118 gneE119"/>
    </vehicle>
    <vehicle id="-flow-random-route-2355eea7-d332-4d54-b363-39237a637192-8920379870651371124-15-0.2" type="actor-impatient_car-8331141053905785892" depart="480.00" departLane="0" departPos="40.34" departSpeed="max" arrivalLane="0" arrivalPos="85.33">
        <route edges="-gneE118 -gneE117 -gneE112 -gneE110 -gneE119 -gneE118 -gneE117 -gneE112 -gneE110 -gneE121"/>
    </vehicle>
    <vehicle id="-flow-random-route-2355eea7-d332-4d54-b363-39237a637192-8920379870651371124-15-1.2" type="actor-patient_car-6171021832865870412" depart="480.00" departLane="0" departPos="40.34" departSpeed="max" arrivalLane="0" arrivalPos="85.33">
        <route edges="-gneE118 -gneE117 -gneE112 -gneE110 -gneE119 -gneE118 -gneE117 -gneE112 -gneE110 -gneE121"/>
    </vehicle>
    <vehicle id="-flow-random-route-24b0be30-3d95-4f13-bec6-625f8baeda36-8920379870651371124-8-0.2" type="actor-impatient_car-8331141053905785892" depart="480.00" departLane="0" departPos="102.72" departSpeed="max" arrivalLane="0" arrivalPos="159.25">
        <route edges="-gneE112 gneE111 gneE97 gneE120 gneE121 gneE110 gneE112 gneE117 gneE118 gneE119"/>
    </vehicle>
    <vehicle id="-flow-random-route-24b0be30-3d95-4f13-bec6-625f8baeda36-8920379870651371124-8-1.2" type="actor-patient_car-6171021832865870412" depart="480.00" departLane="0" departPos="102.72" departSpeed="max" arrivalLane="0" arrivalPos="159.25">
        <route edges="-gneE112 gneE111 gneE97 gneE120 gneE121 gneE110 gneE112 gneE117 gneE118 gneE119"/>
    </vehicle>
    <vehicle id="-flow-random-route-2df0ac48-e73f-465b-82d4-e368ed56ae4c-8920379870651371124-12-0.2" type="actor-impatient_car-8331141053905785892" depart="480.00" departLane="0" departPos="35.29" departSpeed="max" arrivalLane="0" arrivalPos="10.71">
        <route edges="gneE112 -gneE93 gneE97 gneE120 gneE121"/>
    </vehicle>
    <vehicle id="-flow-random-route-2df0ac48-e73f-465b-82d4-e368ed56ae4c-8920379870651371124-12-1.2" type="actor-patient_car-6171021832865870412" depart="480.00" departLane="0" departPos="35.29" departSpeed="max" arrivalLane="0" arrivalPos="10.71">
        <route edges="gneE112 -gneE93 gneE97 gneE120 gneE121"/>
    </vehicle>
    <vehicle id="-flow-random-route-572dc85e-2508-456f-b0a5-47bbf1b3510e-8920379870651371124-3-0.2" type="actor-impatient_car-8331141053905785892" depart="480.00" departLane="0" departPos="23.10" departSpeed="max" arrivalLane="0" arrivalPos="43.60">
        <route edges="gneE121 gneE110 gneE112 gneE117 gneE118 gneE119 gneE110 gneE111 gneE97 gneE120"/>
    </vehicle>
    <vehicle id="-flow-random-route-572dc85e-2508-456f-b0a5-47bbf1b3510e-8920379870651371124-3-1.2" type="actor-patient_car-6171021832865870412" depart="480.00" departLane="0" departPos="23.10" departSpeed="max" arrivalLane="0" arrivalPos="43.60">
        <route edges="gneE121 gneE110 gneE112 gneE117 gneE118 gneE119 gneE110 gneE111 gneE97 gneE120"/>
    </vehicle>
    <vehicle id="-flow-random-route-716771b1-fe6d-4177-83d0-3ce6331da626-8920379870651371124-9-0.2" type="actor-impatient_car-8331141053905785892" depart="480.00" departLane="0" departPos="71.36" departSpeed="max" arrivalLane="0" arrivalPos="26.64">
        <route edges="-gneE118 -gneE117 -gneE112 -gneE110 -gneE119 -gneE118 -gneE117 -gneE112 gneE111 gneE93"/>
    </vehicle>