<?xml version="1.0" encoding="UTF-8"?>

<!-- generated on 2020年09月18日 星期五 23时07分35秒 by Eclipse SUMO netedit Version 1.6.0
<configuration xmlns:xsi="http://www.w3.org/2001/XMLSchema-instance" xsi:noNamespaceSchemaLocation="http://sumo.dlr.de/xsd/netconvertConfiguration.xsd">

    <output>
        <output-file value="/home/xyf/dai/HUAWEI-DAI-TASK1-master/dataset_public/demo1_2/map.net.xml"/>
    </output>

    <processing>
        <offset.disable-normalization value="true"/>
    </processing>

    <junctions>
        <no-turnarounds value="true"/>
    </junctions>

    <report>
        <aggregate-warnings value="5"/>
    </report>

</configuration>
-->

<net version="1.6" junctionCornerDetail="5" limitTurnSpeed="5.50" xmlns:xsi="http://www.w3.org/2001/XMLSchema-instance" xsi:noNamespaceSchemaLocation="http://sumo.dlr.de/xsd/net_file.xsd">

    <location netOffset="0.00,0.00" convBoundary="-218.05,0.00,422.45,500.54" origBoundary="10000000000.00,10000000000.00,-10000000000.00,-10000000000.00" projParameter="!"/>

    <edge id=":gneJ16_0" function="internal">
        <lane id=":gneJ16_0_0" index="0" speed="7.16" length="3.08" shape="98.60,401.31 98.47,400.41 98.47,399.78 98.65,399.17 99.03,398.35"/>
    </edge>
    <edge id=":gneJ16_1" function="internal">
        <lane id=":gneJ16_1_0" index="0" speed="4.44" length="1.03" shape="101.90,399.76 101.77,400.04 101.71,400.24 101.71,400.45 101.76,400.75"/>
    </edge>
    <edge id=":gneJ17_0" function="internal">
        <lane id=":gneJ17_0_0" index="0" speed="7.22" length="2.95" shape="201.90,400.12 201.37,400.81 200.93,401.24 200.40,401.53 199.59,401.83"/>
    </edge>
    <edge id=":gneJ17_1" function="internal">
        <lane id=":gneJ17_1_0" index="0" speed="13.89" length="0.98" shape="198.55,398.79 198.82,398.70 199.00,398.60 199.14,398.46 199.32,398.23"/>
    </edge>
    <edge id=":gneJ18_0" function="internal">
        <lane id=":gneJ18_0_0" index="0" speed="6.55" length="4.15" shape="199.28,302.07 198.88,301.08 198.70,300.08 198.75,299.08 199.03,298.06"/>
    </edge>
    <edge id=":gneJ18_1" function="internal">
        <lane id=":gneJ18_1_0" index="0" speed="4.12" length="1.38" shape="202.03,299.21 201.93,299.55 201.91,299.88 201.97,300.22 202.11,300.54"/>
    </edge>
    <edge id=":gneJ19_0" function="internal">
        <lane id=":gneJ19_0_0" index="0" speed="4.42" length="1.00" shape="300.60,201.80 300.31,201.74 300.11,201.72 299.90,201.77 299.63,201.87"/>
    </edge>
    <edge id=":gneJ19_1" function="internal">
        <lane id=":gneJ19_1_0" index="0" speed="7.17" length="3.00" shape="298.45,198.89 299.27,198.59 299.88,198.46 300.50,198.50 301.36,198.68"/>
    </edge>
    <edge id=":gneJ20_0" function="internal">
        <lane id=":gneJ20_0_0" index="0" speed="6.77" length="3.73" shape="402.06,199.89 401.39,200.76 400.81,201.27 400.10,201.57 399.03,201.81"/>
    </edge>
    <edge id=":gneJ20_1" function="internal">
        <lane id=":gneJ20_1_0" index="0" speed="4.24" length="1.24" shape="398.45,198.66 398.80,198.58 399.04,198.48 399.23,198.31 399.45,198.02"/>
    </edge>
    <edge id=":gneJ21_0" function="internal">
        <lane id=":gneJ21_0_0" index="0" speed="13.89" length="0.94" shape="398.82,101.12 398.67,100.89 398.58,100.72 398.50,100.55 398.40,100.29"/>
    </edge>
    <edge id=":gneJ21_1" function="internal">
        <lane id=":gneJ21_1_0" index="0" speed="13.89" length="0.31" shape="401.39,99.14 401.42,99.23 401.45,99.29 401.48,99.34 401.53,99.42"/>
    </edge>
    <edge id=":gneJ22_0" function="internal">
        <lane id=":gneJ22_0_0" index="0" speed="13.89" length="0.25" shape="299.99,1.62 299.92,1.61 299.87,1.60 299.81,1.60 299.74,1.60"/>
    </edge>
    <edge id=":gneJ22_1" function="internal">
        <lane id=":gneJ22_1_0" index="0" speed="13.89" length="0.76" shape="299.74,-1.60 299.96,-1.60 300.12,-1.59 300.27,-1.58 300.49,-1.54"/>
    </edge>
    <edge id=":gneJ23_0" function="internal">
        <lane id=":gneJ23_0_0" index="0" speed="6.15" length="10.52" shape="200.57,5.19 199.71,2.22 200.15,0.10 201.90,-1.18 204.97,-1.60"/>
    </edge>
    <edge id=":gneJ23_1" function="internal">
        <lane id=":gneJ23_1_0" index="0" speed="3.94" length="3.51" shape="204.97,1.60 203.94,1.74 203.36,2.17 203.21,2.87 203.51,3.86"/>
    </edge>
    <edge id=":gneJ24_0" function="internal">
        <lane id=":gneJ24_0_0" index="0" speed="13.89" length="0.31" shape="201.29,100.96 201.08,101.19"/>
    </edge>
    <edge id=":gneJ24_1" function="internal">
        <lane id=":gneJ24_1_0" index="0" speed="13.89" length="0.23" shape="198.73,99.02 198.88,98.85"/>
    </edge>
    <edge id=":gneJ25_0" function="internal">
        <lane id=":gneJ25_0_0" index="0" speed="6.08" length="8.00" shape="3.72,200.01 1.61,200.66 -0.18,200.47 -1.64,199.42 -2.77,197.53"/>
    </edge>
    <edge id=":gneJ25_1" function="internal">
        <lane id=":gneJ25_1_0" index="0" speed="3.90" length="2.67" shape="0.18,196.29 0.56,196.92 1.05,197.27 1.64,197.33 2.34,197.12"/>
    </edge>
    <edge id=":gneJ26_0" function="internal">
        <lane id=":gneJ26_0_0" index="0" speed="3.96" length="1.85" shape="-197.80,101.43 -198.27,101.53 -198.65,101.74 -198.95,102.07 -199.16,102.51"/>
    </edge>
    <edge id=":gneJ26_1" function="internal">
        <lane id=":gneJ26_1_0" index="0" speed="6.25" length="5.57" shape="-202.20,101.48 -201.56,100.16 -200.66,99.17 -199.51,98.53 -198.10,98.22"/>
    </edge>
    <edge id=":gneJ27_0" function="internal">
        <lane id=":gneJ27_0_0" index="0" speed="6.40" length="4.79" shape="-198.65,201.96 -199.82,201.55 -200.79,200.91 -201.55,200.04 -202.11,198.95"/>
    </edge>
    <edge id=":gneJ27_1" function="internal">
        <lane id=":gneJ27_1_0" index="0" speed="4.04" length="1.59" shape="-199.11,197.81 -198.93,198.18 -198.67,198.47 -198.35,198.68 -197.96,198.81"/>
    </edge>
    <edge id=":gneJ28_0" function="internal">
        <lane id=":gneJ28_0_0" index="0" speed="13.89" length="0.59" shape="-101.60,300.60 -101.60,300.42 -101.61,300.30 -101.65,300.18 -101.71,300.02"/>
    </edge>
    <edge id=":gneJ28_1" function="internal">
        <lane id=":gneJ28_1_0" index="0" speed="9.84" length="1.78" shape="-98.72,298.87 -98.54,299.36 -98.44,299.71 -98.41,300.07 -98.40,300.60"/>
    </edge>
    <edge id=":gneJ29_0" function="internal">
        <lane id=":gneJ29_0_0" index="0" speed="6.63" length="3.77" shape="-100.19,402.07 -100.81,401.33 -101.25,400.52 -101.51,399.63 -101.60,398.67"/>
    </edge>
    <edge id=":gneJ29_1" function="internal">
        <lane id=":gneJ29_1_0" index="0" speed="4.20" length="1.26" shape="-98.40,398.67 -98.37,398.99 -98.28,399.29 -98.14,399.56 -97.93,399.81"/>
    </edge>
    <edge id=":gneJ30_0" function="internal">
        <lane id=":gneJ30_0_0" index="0" speed="6.78" length="3.87" shape="1.34,501.62 0.21,501.57 -0.57,501.38 -1.25,500.96 -2.08,500.19"/>
    </edge>
    <edge id=":gneJ30_1" function="internal">
        <lane id=":gneJ30_1_0" index="0" speed="4.19" length="1.27" shape="0.19,497.92 0.44,498.13 0.71,498.28 1.01,498.36 1.33,498.39"/>
    </edge>

    <edge id="-gneE15" from="gneJ17" to="gneJ16" priority="-1" shape="200.00,400.00 178.36,407.43 160.61,374.85 137.43,361.19 115.85,367.65 100.00,400.00">
        <lane id="-gneE15_0" index="0" speed="13.89" length="142.43" shape="199.59,401.83 177.60,409.38 159.42,376.00 137.22,362.92 116.98,368.98 101.90,399.76"/>
    </edge>
    <edge id="-gneE16" from="gneJ17" to="gneJ18" priority="-1" shape="200.00,400.00 212.41,383.09 220.91,361.31 216.01,330.28 200.00,300.00">
        <lane id="-gneE16_0" index="0" speed="13.89" length="105.68" shape="199.32,398.23 211.00,382.31 219.26,361.13 214.47,330.79 199.28,302.07"/>
    </edge>
    <edge id="-gneE17" from="gneJ19" to="gneJ18" priority="-1" shape="300.00,200.00 244.47,222.06 213.51,265.43 200.00,300.00">
        <lane id="-gneE17_0" index="0" speed="13.89" length="146.31" shape="299.63,201.87 245.50,223.37 214.93,266.20 202.03,299.21"/>
    </edge>
    <edge id="-gneE18" from="gneJ20" to="gneJ19" priority="-1" shape="400.00,200.00 342.45,210.72 300.00,200.00">
        <lane id="-gneE18_0" index="0" speed="13.89" length="100.72" shape="399.03,201.81 342.40,212.36 300.60,201.80"/>
    </edge>
    <edge id="-gneE19" from="gneJ21" to="gneJ20" priority="-1" shape="400.00,100.00 422.43,135.75 420.31,172.09 400.00,200.00">
        <lane id="-gneE19_0" index="0" speed="13.89" length="113.47" shape="401.53,99.42 424.06,135.33 421.88,172.65 402.06,199.89"/>
    </edge>
    <edge id="-gneE20" from="gneJ22" to="gneJ21" priority="-1" shape="300.00,0.00 359.48,9.44 381.89,51.98 400.00,100.00">
        <lane id="-gneE20_0" index="0" speed="13.89" length="160.87" shape="300.49,-1.54 360.52,7.99 383.35,51.32 401.39,99.14"/>
    </edge>
    <edge id="-gneE21" from="gneJ23" to="gneJ22" priority="-1">
        <lane id="-gneE21_0" index="0" speed="13.89" length="94.77" shape="204.97,-1.60 299.74,-1.60"/>
    </edge>
    <edge id="-gneE22" from="gneJ24" to="gneJ23" priority="-1" shape="200.00,100.00 217.31,80.21 220.12,44.97 200.00,0.00">
        <lane id="-gneE22_0" index="0" speed="13.89" length="103.93" shape="198.88,98.85 215.76,79.56 218.49,45.25 200.57,5.19"/>
    </edge>
    <edge id="-gneE23" from="gneJ25" to="gneJ24" priority="-1" shape="0.00,200.00 81.25,161.42 130.56,165.67 177.67,123.86 200.00,100.00">
        <lane id="-gneE23_0" index="0" speed="13.89" length="230.94" shape="2.34,197.12 80.96,159.79 130.01,164.02 176.55,122.71 198.73,99.02"/>
    </edge>
    <edge id="-gneE24" from="gneJ26" to="gneJ25" priority="-1" shape="-200.00,100.00 -159.68,96.24 -123.58,115.25 -84.47,163.94 -46.38,172.06 -16.20,161.25 0.00,200.00">
        <lane id="-gneE24_0" index="0" speed="13.89" length="253.94" shape="-198.10,98.22 -159.36,94.60 -122.54,113.99 -83.58,162.49 -46.49,170.40 -15.31,159.23 0.18,196.29"/>
    </edge>
    <edge id="-gneE25" from="gneJ27" to="gneJ26" priority="-1" shape="-200.00,200.00 -218.05,152.35 -200.00,100.00">
        <lane id="-gneE25_0" index="0" speed="13.89" length="103.64" shape="-202.11,198.95 -219.75,152.38 -202.20,101.48"/>
    </edge>
    <edge id="-gneE26" from="gneJ28" to="gneJ27" priority="-1" shape="-100.00,300.00 -125.01,235.28 -171.12,206.69 -200.00,200.00">
        <lane id="-gneE26_0" index="0" speed="13.89" length="149.33" shape="-101.71,300.02 -126.31,236.36 -171.74,208.19 -198.65,201.96"/>
    </edge>
    <edge id="-gneE27" from="gneJ29" to="gneJ28" priority="-1">
        <lane id="-gneE27_0" index="0" speed="13.89" length="98.08" shape="-101.60,398.67 -101.60,300.60"/>
    </edge>
    <edge id="-gneE29" from="gneJ30" to="gneJ29" priority="-1">
        <lane id="-gneE29_0" index="0" speed="13.89" length="138.76" shape="-2.08,500.19 -100.19,402.07"/>
    </edge>
    <edge id="-gneE30" from="gneJ16" to="gneJ30" priority="-1" shape="100.00,400.00 107.57,442.66 83.91,475.61 47.01,500.54 0.00,500.00">
        <lane id="-gneE30_0" index="0" speed="13.89" length="175.95" shape="101.76,400.75 109.26,443.04 85.04,476.78 47.49,502.15 1.34,501.62"/>
    </edge>
    <edge id="gneE15" from="gneJ16" to="gneJ17" priority="-1" shape="100.00,400.00 115.90,367.75 137.31,360.91 160.65,374.61 178.28,407.13 200.00,400.00">
        <lane id="gneE15_0" index="0" speed="13.89" length="144.30" shape="99.03,398.35 114.77,366.43 137.50,359.17 161.84,373.46 179.05,405.19 198.55,398.79"/>
    </edge>
    <edge id="gneE16" from="gneJ18" to="gneJ17" priority="-1" shape="200.00,300.00 215.99,329.66 220.93,361.13 212.41,383.28 200.00,400.00">
        <lane id="gneE16_0" index="0" speed="13.89" length="109.43" shape="202.11,300.54 217.53,329.14 222.58,361.30 213.82,384.06 201.90,400.12"/>
    </edge>
    <edge id="gneE17" from="gneJ18" to="gneJ19" priority="-1" shape="200.00,300.00 213.32,265.43 244.40,221.81 300.00,200.00">
        <lane id="gneE17_0" index="0" speed="13.89" length="149.18" shape="199.03,298.06 211.90,264.67 243.37,220.49 298.45,198.89"/>
    </edge>
    <edge id="gneE18" from="gneJ19" to="gneJ20" priority="-1" shape="300.00,200.00 343.21,210.53 400.00,200.00">
        <lane id="gneE18_0" index="0" speed="13.89" length="99.25" shape="301.36,198.68 343.26,208.89 398.45,198.66"/>
    </edge>
    <edge id="gneE19" from="gneJ20" to="gneJ21" priority="-1" shape="400.00,200.00 419.93,172.28 422.45,135.74 400.00,100.00">
        <lane id="gneE19_0" index="0" speed="13.89" length="109.42" shape="399.45,198.02 418.37,171.72 420.82,136.15 398.82,101.12"/>
    </edge>
    <edge id="gneE20" from="gneJ21" to="gneJ22" priority="-1" shape="400.00,100.00 381.60,51.89 359.54,9.75 300.00,0.00">
        <lane id="gneE20_0" index="0" speed="13.89" length="157.06" shape="398.40,100.29 380.14,52.55 358.49,11.20 299.99,1.62"/>
    </edge>
    <edge id="gneE21" from="gneJ22" to="gneJ23" priority="-1">
        <lane id="gneE21_0" index="0" speed="13.89" length="94.77" shape="299.74,1.60 204.97,1.60"/>
    </edge>
    <edge id="gneE22" from="gneJ23" to="gneJ24" priority="-1" shape="200.00,0.00 220.31,44.78 217.33,80.41 200.00,100.00">
        <lane id="gneE22_0" index="0" speed="13.89" length="107.87" shape="203.51,3.86 221.94,44.50 218.88,81.07 201.29,100.96"/>
    </edge>
    <edge id="gneE23" from="gneJ24" to="gneJ25" priority="-1" shape="200.00,100.00 177.75,124.20 130.66,165.57 81.10,161.59 0.00,200.00">
        <lane id="gneE23_0" index="0" speed="13.89" length="232.19" shape="201.08,101.19 178.87,125.35 131.21,167.22 81.40,163.22 3.72,200.01"/>
    </edge>
    <edge id="gneE24" from="gneJ25" to="gneJ26" priority="-1" shape="0.00,200.00 -16.12,161.66 -46.14,172.25 -84.47,163.95 -123.46,115.62 -158.99,96.81 -200.00,100.00">
        <lane id="gneE24_0" index="0" speed="13.89" length="248.08" shape="-2.77,197.53 -17.01,163.67 -46.04,173.91 -85.36,165.39 -124.50,116.88 -159.33,98.44 -197.80,101.43"/>
    </edge>
    <edge id="gneE25" from="gneJ26" to="gneJ27" priority="-1" shape="-200.00,100.00 -217.87,152.53 -200.00,200.00">
        <lane id="gneE25_0" index="0" speed="13.89" length="101.22" shape="-199.16,102.51 -216.17,152.50 -199.11,197.81"/>
    </edge>
    <edge id="gneE26" from="gneJ27" to="gneJ28" priority="-1" shape="-200.00,200.00 -171.12,206.31 -124.88,235.40 -100.00,300.00">
        <lane id="gneE26_0" index="0" speed="13.89" length="152.70" shape="-197.96,198.81 -170.50,204.81 -123.58,234.33 -98.72,298.87"/>
    </edge>
    <edge id="gneE27" from="gneJ28" to="gneJ29" priority="-1">
        <lane id="gneE27_0" index="0" speed="13.89" length="98.08" shape="-98.40,300.60 -98.40,398.67"/>
    </edge>
    <edge id="gneE29" from="gneJ29" to="gneJ30" priority="-1">
        <lane id="gneE29_0" index="0" speed="13.89" length="138.76" shape="-97.93,399.81 0.19,497.92"/>
    </edge>
    <edge id="gneE30" from="gneJ30" to="gneJ16" priority="-1" shape="0.00,500.00 46.63,499.74 82.96,475.37 107.03,442.25 100.00,400.00">
        <lane id="gneE30_0" index="0" speed="13.89" length="168.88" shape="1.33,498.39 46.14,498.14 81.83,474.20 105.34,441.85 98.60,401.31"/>
    </edge>

    <junction id="gneJ16" type="priority" x="100.00" y="400.00" incLanes="gneE30_0 -gneE15_0" intLanes=":gneJ16_0_0 :gneJ16_1_0" shape="97.02,401.59 103.33,400.47 97.60,397.64 96.98,399.02 96.85,399.55 96.83,400.09 96.89,400.74">
        <request index="0" response="00" foes="00" cont="0"/>
        <request index="1" response="00" foes="00" cont="0"/>
    </junction>
    <junction id="gneJ17" type="priority" x="200.00" y="400.00" incLanes="gneE16_0 gneE15_0" intLanes=":gneJ17_0_0 :gneJ17_1_0" shape="203.19,401.07 198.03,397.28 200.11,403.35 201.46,402.82 201.90,402.55 202.29,402.20 202.69,401.73">
        <request index="0" response="00" foes="00" cont="0"/>
        <request index="1" response="00" foes="00" cont="0"/>
    </junction>
    <junction id="gneJ18" type="priority" x="200.00" y="300.00" incLanes="-gneE16_0 -gneE17_0" intLanes=":gneJ18_0_0 :gneJ18_1_0" shape="197.88,302.83 203.52,299.79 197.54,297.48 197.11,299.29 197.10,300.18 197.22,301.07 197.48,301.95">
        <request index="0" response="00" foes="00" cont="0"/>
        <request index="1" response="00" foes="00" cont="0"/>
    </junction>
    <junction id="gneJ19" type="priority" x="300.00" y="200.00" incLanes="-gneE18_0 gneE17_0" intLanes=":gneJ19_0_0 :gneJ19_1_0" shape="300.22,203.36 301.74,197.13 300.29,196.84 299.77,196.83 299.25,196.91 298.64,197.10 297.86,197.40">
        <request index="0" response="00" foes="00" cont="0"/>
        <request index="1" response="00" foes="00" cont="0"/>
    </junction>
    <junction id="gneJ20" type="priority" x="400.00" y="200.00" incLanes="-gneE19_0 gneE18_0" intLanes=":gneJ20_0_0 :gneJ20_1_0" shape="403.35,200.83 398.15,197.09 399.32,203.38 401.10,202.95 401.69,202.66 402.21,202.25 402.73,201.66">
        <request index="0" response="00" foes="00" cont="0"/>
        <request index="1" response="00" foes="00" cont="0"/>
    </junction>
    <junction id="gneJ21" type="priority" x="400.00" y="100.00" incLanes="gneE19_0 -gneE20_0" intLanes=":gneJ21_0_0 :gneJ21_1_0" shape="397.46,101.97 402.88,98.57 396.90,100.86 397.07,101.29 397.14,101.44 397.22,101.58 397.32,101.75">
        <request index="0" response="00" foes="00" cont="0"/>
        <request index="1" response="00" foes="00" cont="0"/>
    </junction>
    <junction id="gneJ22" type="priority" x="300.00" y="0.00" incLanes="gneE20_0 -gneE21_0" intLanes=":gneJ22_0_0 :gneJ22_1_0" shape="299.74,3.20 300.74,-3.12 300.37,-3.18 300.24,-3.19 300.11,-3.20 299.95,-3.20 299.74,-3.20">
        <request index="0" response="00" foes="00" cont="0"/>
        <request index="1" response="00" foes="00" cont="0"/>
    </junction>
    <junction id="gneJ23" type="priority" x="200.00" y="0.00" incLanes="-gneE22_0 gneE21_0" intLanes=":gneJ23_0_0 :gneJ23_1_0" shape="199.11,5.85 204.97,3.20 204.97,-3.20 202.05,-2.95 199.91,-2.19 198.55,-0.94 197.96,0.82 198.15,3.09">
        <request index="0" response="00" foes="00" cont="0"/>
        <request index="1" response="00" foes="00" cont="0"/>
    </junction>
    <junction id="gneJ24" type="priority" x="200.00" y="100.00" incLanes="gneE22_0 -gneE23_0" intLanes=":gneJ24_0_0 :gneJ24_1_0" shape="202.49,102.01 197.68,97.80 197.55,97.94 202.26,102.27">
        <request index="0" response="00" foes="00" cont="0"/>
        <request index="1" response="00" foes="00" cont="0"/>
    </junction>
    <junction id="gneJ25" type="priority" x="0.00" y="200.00" incLanes="gneE23_0 -gneE24_0" intLanes=":gneJ25_0_0 :gneJ25_1_0" shape="4.40,201.45 1.66,195.67 -4.25,198.15 -3.29,199.96 -2.13,201.26 -0.79,202.06 0.75,202.36 2.48,202.16">
        <request index="0" response="00" foes="00" cont="0"/>
        <request index="1" response="00" foes="00" cont="0"/>
    </junction>
    <junction id="gneJ26" type="priority" x="-200.00" y="100.00" incLanes="gneE24_0 -gneE25_0" intLanes=":gneJ26_0_0 :gneJ26_1_0" shape="-197.65,103.03 -198.25,96.62 -200.68,97.28 -201.67,97.90 -202.50,98.72 -203.19,99.74 -203.72,100.96">
        <request index="0" response="00" foes="00" cont="0"/>
        <request index="1" response="00" foes="00" cont="0"/>
    </junction>
    <junction id="gneJ27" type="priority" x="-200.00" y="200.00" incLanes="-gneE26_0 gneE25_0" intLanes=":gneJ27_0_0 :gneJ27_1_0" shape="-198.99,203.52 -197.62,197.24 -203.61,199.51 -202.55,201.39 -201.84,202.12 -201.01,202.72 -200.06,203.19">
        <request index="0" response="00" foes="00" cont="0"/>
        <request index="1" response="00" foes="00" cont="0"/>
    </junction>
    <junction id="gneJ28" type="priority" x="-100.00" y="300.00" incLanes="-gneE27_0 gneE26_0" intLanes=":gneJ28_0_0 :gneJ28_1_0" shape="-103.20,300.60 -96.80,300.60 -96.82,299.72 -96.86,299.41 -96.93,299.11 -97.05,298.76 -97.23,298.29">
        <request index="0" response="00" foes="00" cont="0"/>
        <request index="1" response="00" foes="00" cont="0"/>
    </junction>
    <junction id="gneJ29" type="priority" x="-100.00" y="400.00" incLanes="-gneE29_0 gneE27_0" intLanes=":gneJ29_0_0 :gneJ29_1_0" shape="-101.33,403.20 -96.80,398.67 -103.20,398.67 -102.99,400.36 -102.73,401.13 -102.37,401.86 -101.90,402.55">
        <request index="0" response="00" foes="00" cont="0"/>
        <request index="1" response="00" foes="00" cont="0"/>
    </junction>
    <junction id="gneJ30" type="priority" x="0.00" y="500.00" incLanes="-gneE30_0 gneE29_0" intLanes=":gneJ30_0_0 :gneJ30_1_0" shape="1.35,503.22 1.32,496.79 -3.21,501.32 -1.80,502.58 -1.20,502.91 -0.54,503.10 0.28,503.19">
        <request index="0" response="00" foes="00" cont="0"/>
        <request index="1" response="00" foes="00" cont="0"/>
    </junction>

    <connection from="-gneE15" to="-gneE30" fromLane="0" toLane="0" via=":gneJ16_1_0" dir="s" state="M"/>
    <connection from="-gneE16" to="gneE17" fromLane="0" toLane="0" via=":gneJ18_0_0" dir="l" state="M"/>
    <connection from="-gneE17" to="gneE16" fromLane="0" toLane="0" via=":gneJ18_1_0" dir="r" state="M"/>
    <connection from="-gneE18" to="-gneE17" fromLane="0" toLane="0" via=":gneJ19_0_0" dir="s" state="M"/>
    <connection from="-gneE19" to="-gneE18" fromLane="0" toLane="0" via=":gneJ20_0_0" dir="s" state="M"/>
    <connection from="-gneE20" to="-gneE19" fromLane="0" toLane="0" via=":gneJ21_1_0" dir="s" state="M"/>
    <connection from="-gneE21" to="-gneE20" fromLane="0" toLane="0" via=":gneJ22_1_0" dir="s" state="M"/>
    <connection from="-gneE22" to="-gneE21" fromLane="0" toLane="0" via=":gneJ23_0_0" dir="l" state="M"/>
    <connection from="-gneE23" to="-gneE22" fromLane="0" toLane="0" via=":gneJ24_1_0" dir="s" state="M"/>
    <connection from="-gneE24" to="-gneE23" fromLane="0" toLane="0" via=":gneJ25_1_0" dir="r" state="M"/>
    <connection from="-gneE25" to="-gneE24" fromLane="0" toLane="0" via=":gneJ26_1_0" dir="l" state="M"/>
    <connection from="-gneE26" to="-gneE25" fromLane="0" toLane="0" via=":gneJ27_0_0" dir="l" state="M"/>
    <connection from="-gneE27" to="-gneE26" fromLane="0" toLane="0" via=":gneJ28_0_0" dir="s" state="M"/>
    <connection from="-gneE29" to="-gneE27" fromLane="0" toLane="0" via=":gneJ29_0_0" dir="l" state="M"/>
    <connection from="-gneE30" to="-gneE29" fromLane="0" toLane="0" via=":gneJ30_0_0" dir="l" state="M"/>
    <connection from="gneE15" to="-gneE16" fromLane="0" toLane="0" via=":gneJ17_1_0" dir="s" state="M"/>
    <connection from="gneE16" to="-gneE15" fromLane="0" toLane="0" via=":gneJ17_0_0" dir="s" state="M"/>
    <connection from="gneE17" to="gneE18" fromLane="0" toLane="0" via=":gneJ19_1_0" dir="s" state="M"/>
    <connection from="gneE18" to="gneE19" fromLane="0" toLane="0" via=":gneJ20_1_0" dir="s" state="M"/>
    <connection from="gneE19" to="gneE20" fromLane="0" toLane="0" via=":gneJ21_0_0" dir="s" state="M"/>
    <connection from="gneE20" to="gneE21" fromLane="0" toLane="0" via=":gneJ22_0_0" dir="s" state="M"/>
    <connection from="gneE21" to="gneE22" fromLane="0" toLane="0" via=":gneJ23_1_0" dir="r" state="M"/>
    <connection from="gneE22" to="gneE23" fromLane="0" toLane="0" via=":gneJ24_0_0" dir="s" state="M"/>
    <connection from="gneE23" to="gneE24" fromLane="0" toLane="0" via=":gneJ25_0_0" dir="l" state="M"/>
    <connection from="gneE24" to="gneE25" fromLane="0" toLane="0" via=":gneJ26_0_0" dir="r" state="M"/>
    <connection from="gneE25" to="gneE26" fromLane="0" toLane="0" via=":gneJ27_1_0" dir="r" state="M"/>
    <connection from="gneE26" to="gneE27" fromLane="0" toLane="0" via=":gneJ28_1_0" dir="s" state="M"/>
    <connection from="gneE27" to="gneE29" fromLane="0" toLane="0" via=":gneJ29_1_0" dir="r" state="M"/>
    <connection from="gneE29" to="gneE30" fromLane="0" toLane="0" via=":gneJ30_1_0" dir="r" state="M"/>
    <connection from="gneE30" to="gneE15" fromLane="0" toLane="0" via=":gneJ16_0_0" dir="s" state="M"/>

    <connection from=":gneJ16_0" to="gneE15" fromLane="0" toLane="0" dir="s" state="M"/>
    <connection from=":gneJ16_1" to="-gneE30" fromLane="0" toLane="0" dir="s" state="M"/>
    <connection from=":gneJ17_0" to="-gneE15" fromLane="0" toLane="0" dir="s" state="M"/>
    <connection from=":gneJ17_1" to="-gneE16" fromLane="0" toLane="0" dir="s" state="M"/>
    <connection from=":gneJ18_0" to="gneE17" fromLane="0" toLane="0" dir="l" state="M"/>
    <connection from=":gneJ18_1" to="gneE16" fromLane="0" toLane="0" dir="r" state="M"/>
    <connection from=":gneJ19_0" to="-gneE17" fromLane="0" toLane="0" dir="s" state="M"/>
    <connection from=":gneJ19_1" to="gneE18" fromLane="0" toLane="0" dir="s" state="M"/>
    <connection from=":gneJ20_0" to="-gneE18" fromLane="0" toLane="0" dir="s" state="M"/>
    <connection from=":gneJ20_1" to="gneE19" fromLane="0" toLane="0" dir="s" state="M"/>
    <connection from=":gneJ21_0" to="gneE20" fromLane="0" toLane="0" dir="s" state="M"/>
    <connection from=":gneJ21_1" to="-gneE19" fromLane="0" toLane="0" dir="s" state="M"/>
    <connection from=":gneJ22_0" to="gneE21" fromLane="0" toLane="0" dir="s" state="M"/>
    <connection from=":gneJ22_1" to="-gneE20" fromLane="0" toLane="0" dir="s" state="M"/>
    <connection from=":gneJ23_0" to="-gneE21" fromLane="0" toLane="0" dir="l" state="M"/>
    <connection from=":gneJ23_1" to="gneE22" fromLane="0" toLane="0" dir="r" state="M"/>
    <connection from=":gneJ24_0" to="gneE23" fromLane="0" toLane="0" dir="s" state="M"/>
    <connection from=":gneJ24_1" to="-gneE22" fromLane="0" toLane="0" dir="s" state="M"/>
    <connection from=":gneJ25_0" to="gneE24" fromLane="0" toLane="0" dir="l" state="M"/>
    <connection from=":gneJ25_1" to="-gneE23" fromLane="0" toLane="0" dir="r" state="M"/>
    <connection from=":gneJ26_0" to="gneE25" fromLane="0" toLane="0" dir="r" state="M"/>
    <connection from=":gneJ26_1" to="-gneE24" fromLane="0" toLane="0" dir="l" state="M"/>
    <connection from=":gneJ27_0" to="-gneE25" fromLane="0" toLane="0" dir="l" state="M"/>
    <connection from=":gneJ27_1" to="gneE26" fromLane="0" toLane="0" dir="r" state="M"/>
    <connection from=":gneJ28_0" to="-gneE26" fromLane="0" toLane="0" dir="s" state="M"/>
    <connection from=":gneJ28_1" to="gneE27" fromLane="0" toLane="0" dir="s" state="M"/>
    <connection from=":gneJ29_0" to="-gneE27" fromLane="0" toLane="0" dir="l" state="M"/>
    <connection from=":gneJ29_1" to="gneE29" fromLane="0" toLane="0" dir="r" state="M"/>
    <connection from=":gneJ30_0" to="-gneE29" fromLane="0" toLane="0" dir="l" state="M"/>
    <connection from=":gneJ30_1" to="gneE30" fromLane="0" toLane="0" dir="r" state="M"/>

</net>
