<?xml version="1.0" encoding="UTF-8"?>

<!-- generated on 2020年09月18日 星期五 16时03分26秒 by Eclipse SUMO netedit Version 1.6.0
<configuration xmlns:xsi="http://www.w3.org/2001/XMLSchema-instance" xsi:noNamespaceSchemaLocation="http://sumo.dlr.de/xsd/netconvertConfiguration.xsd">

    <input>
        <sumo-net-file value="/home/simsimi/桌面/HUAWEI-DAI-TASK1/HUAWEI-DAI2020/task1/dataset_public/demo/demo3/map.net.xml"/>
    </input>

    <output>
        <output-file value="/home/simsimi/桌面/HUAWEI-DAI-TASK1/HUAWEI-DAI2020/task1/dataset_public/demo/demo3/map.net.xml"/>
    </output>

    <processing>
        <geometry.min-radius.fix.railways value="false"/>
        <geometry.max-grade.fix value="false"/>
        <offset.disable-normalization value="true"/>
        <lefthand value="false"/>
    </processing>

    <junctions>
        <no-turnarounds value="true"/>
        <junctions.corner-detail value="5"/>
        <junctions.limit-turn-speed value="5.5"/>
        <rectangular-lane-cut value="false"/>
    </junctions>

    <pedestrian>
        <walkingareas value="false"/>
    </pedestrian>

    <report>
        <aggregate-warnings value="5"/>
    </report>

</configuration>
-->

<net version="1.6" junctionCornerDetail="5" limitTurnSpeed="5.50" xmlns:xsi="http://www.w3.org/2001/XMLSchema-instance" xsi:noNamespaceSchemaLocation="http://sumo.dlr.de/xsd/net_file.xsd">

    <location netOffset="0.00,0.00" convBoundary="430.45,313.55,665.81,383.36" origBoundary="-10000000000.00,-10000000000.00,10000000000.00,10000000000.00" projParameter="!"/>

    <edge id=":gneJ31_0" function="internal">
        <lane id=":gneJ31_0_0" index="0" speed="10.19" length="23.78" shape="446.96,377.36 439.04,376.51 433.42,374.33 430.10,370.81 429.09,365.96"/>
    </edge>
    <edge id=":gneJ31_1" function="internal">
        <lane id=":gneJ31_1_0" index="0" speed="6.32" length="4.81" shape="446.96,377.36 443.13,376.00 442.74,375.36"/>
    </edge>
    <edge id=":gneJ31_6" function="internal">
        <lane id=":gneJ31_6_0" index="0" speed="6.32" length="10.57" shape="442.74,375.36 441.24,372.91 441.56,369.30 444.39,366.38"/>
    </edge>
    <edge id=":gneJ31_2" function="internal">
        <lane id=":gneJ31_2_0" index="0" speed="5.55" length="11.44" shape="445.86,369.22 442.52,371.30 441.60,372.82 443.10,373.78 447.02,374.16"/>
    </edge>
    <edge id=":gneJ31_3" function="internal">
        <lane id=":gneJ31_3_0" index="0" speed="8.43" length="21.99" shape="445.86,369.22 438.41,372.34 433.13,372.84 430.03,370.72 429.09,365.96"/>
    </edge>
    <edge id=":gneJ31_4" function="internal">
        <lane id=":gneJ31_4_0" index="0" speed="7.01" length="14.78" shape="432.29,366.05 432.98,368.58 435.23,369.48 439.03,368.75 444.39,366.38"/>
    </edge>
    <edge id=":gneJ31_5" function="internal">
        <lane id=":gneJ31_5_0" index="0" speed="9.09" length="18.68" shape="432.29,366.05 433.14,369.48 435.87,371.98 440.50,373.54 447.02,374.16"/>
    </edge>
    <edge id=":gneJ32_0" function="internal">
        <lane id=":gneJ32_0_0" index="0" speed="13.89" length="0.30" shape="482.66,378.09 482.37,378.08"/>
    </edge>
    <edge id=":gneJ32_1" function="internal">
        <lane id=":gneJ32_1_0" index="0" speed="13.89" length="0.30" shape="482.43,374.88 482.73,374.89"/>
    </edge>
    <edge id=":gneJ33_0" function="internal">
        <lane id=":gneJ33_0_0" index="0" speed="13.89" length="29.17" shape="558.52,379.96 529.36,379.14"/>
    </edge>
    <edge id=":gneJ33_1" function="internal">
        <lane id=":gneJ33_1_0" index="0" speed="13.89" length="13.19" shape="558.52,379.96 550.02,379.15 545.51,378.00"/>
    </edge>
    <edge id=":gneJ33_2" function="internal">
        <lane id=":gneJ33_2_0" index="0" speed="6.26" length="4.34" shape="558.52,379.96 554.76,378.53 554.60,378.25"/>
    </edge>
    <edge id=":gneJ33_12" function="internal">
        <lane id=":gneJ33_12_0" index="0" speed="13.89" length="15.78" shape="545.51,378.00 542.75,377.29 536.71,374.38 531.91,370.42"/>
    </edge>
    <edge id=":gneJ33_13" function="internal">
        <lane id=":gneJ33_13_0" index="0" speed="6.26" length="10.95" shape="554.60,378.25 552.97,375.38 553.40,371.78 556.31,369.01"/>
    </edge>
    <edge id=":gneJ33_3" function="internal">
        <lane id=":gneJ33_3_0" index="0" speed="5.60" length="11.87" shape="557.64,371.91 554.03,373.91 552.98,375.38 554.52,376.33 558.62,376.76"/>
    </edge>
    <edge id=":gneJ33_4" function="internal">
        <lane id=":gneJ33_4_0" index="0" speed="13.89" length="29.26" shape="557.64,371.91 552.01,373.94 543.67,376.35 535.25,378.36 529.36,379.14"/>
    </edge>
    <edge id=":gneJ33_5" function="internal">
        <lane id=":gneJ33_5_0" index="0" speed="12.56" length="27.61" shape="557.64,371.91 549.65,374.76 542.69,375.46 536.78,374.01 531.91,370.42"/>
    </edge>
    <edge id=":gneJ33_6" function="internal">
        <lane id=":gneJ33_6_0" index="0" speed="11.64" length="23.59" shape="534.25,368.24 538.30,371.15 543.33,372.25 549.33,371.53 556.31,369.01"/>
    </edge>
    <edge id=":gneJ33_7" function="internal">
        <lane id=":gneJ33_7_0" index="0" speed="13.89" length="26.45" shape="534.25,368.24 538.57,371.77 544.07,374.36 550.76,376.03 558.62,376.76"/>
    </edge>
    <edge id=":gneJ33_8" function="internal">
        <lane id=":gneJ33_8_0" index="0" speed="7.42" length="19.15" shape="534.25,368.24 537.88,373.14 538.28,376.59 535.44,378.59 529.36,379.14"/>
    </edge>
    <edge id=":gneJ33_9" function="internal">
        <lane id=":gneJ33_9_0" index="0" speed="5.48" length="9.70" shape="529.44,375.95 532.51,375.67 533.95,374.65 533.75,372.90 531.91,370.42"/>
    </edge>
    <edge id=":gneJ33_10" function="internal">
        <lane id=":gneJ33_10_0" index="0" speed="13.89" length="27.83" shape="529.44,375.95 535.10,375.20 543.04,373.30 550.89,370.99 556.31,369.01"/>
    </edge>
    <edge id=":gneJ33_11" function="internal">
        <lane id=":gneJ33_11_0" index="0" speed="13.89" length="29.20" shape="529.44,375.95 558.62,376.76"/>
    </edge>
    <edge id=":gneJ34_0" function="internal">
        <lane id=":gneJ34_0_0" index="0" speed="13.89" length="16.71" shape="604.88,381.61 588.18,380.90"/>
    </edge>
    <edge id=":gneJ34_1" function="internal">
        <lane id=":gneJ34_1_0" index="0" speed="13.77" length="5.35" shape="604.88,381.61 601.05,380.52 599.89,379.80"/>
    </edge>
    <edge id=":gneJ34_6" function="internal">
        <lane id=":gneJ34_6_0" index="0" speed="13.77" length="11.87" shape="599.89,379.80 597.25,378.17 593.75,375.18 590.85,372.18"/>
    </edge>
    <edge id=":gneJ34_2" function="internal">
        <lane id=":gneJ34_2_0" index="0" speed="12.82" length="14.88" shape="593.24,370.04 595.80,372.88 598.55,375.50 601.61,377.49 605.10,378.42"/>
    </edge>
    <edge id=":gneJ34_3" function="internal">
        <lane id=":gneJ34_3_0" index="0" speed="7.41" length="19.01" shape="593.24,370.04 596.73,374.97 597.05,378.42 594.20,380.40 588.18,380.90"/>
    </edge>
    <edge id=":gneJ34_4" function="internal">
        <lane id=":gneJ34_4_0" index="0" speed="5.48" length="9.67" shape="588.28,377.70 591.34,377.44 592.79,376.44 592.63,374.68 590.85,372.18"/>
    </edge>
    <edge id=":gneJ34_5" function="internal">
        <lane id=":gneJ34_5_0" index="0" speed="13.89" length="16.83" shape="588.28,377.70 605.10,378.42"/>
    </edge>
    <edge id=":gneJ42_0" function="internal">
        <lane id=":gneJ42_0_0" index="0" speed="6.10" length="7.13" shape="656.52,380.83 655.92,382.66 654.88,383.92 653.40,384.63 651.47,384.76"/>
    </edge>
    <edge id=":gneJ42_1" function="internal">
        <lane id=":gneJ42_1_0" index="0" speed="3.91" length="2.38" shape="651.69,381.57 652.33,381.53 652.82,381.29 653.17,380.87 653.37,380.26"/>
    </edge>
    <edge id=":gneJ43_0" function="internal">
        <lane id=":gneJ43_0_0" index="0" speed="10.00" length="26.01" shape="646.87,318.99 655.21,319.38 661.49,321.08 665.13,324.67 665.58,330.68"/>
    </edge>
    <edge id=":gneJ43_1" function="internal">
        <lane id=":gneJ43_1_0" index="0" speed="6.20" length="4.60" shape="646.87,318.99 650.62,320.29 650.94,320.83"/>
    </edge>
    <edge id=":gneJ43_6" function="internal">
        <lane id=":gneJ43_6_0" index="0" speed="6.20" length="10.59" shape="650.94,320.83 652.47,323.40 652.12,327.01 649.28,329.78"/>
    </edge>
    <edge id=":gneJ43_2" function="internal">
        <lane id=":gneJ43_2_0" index="0" speed="5.68" length="12.44" shape="647.94,326.88 651.78,324.79 652.89,323.31 651.26,322.44 646.89,322.19"/>
    </edge>
    <edge id=":gneJ43_3" function="internal">
        <lane id=":gneJ43_3_0" index="0" speed="8.42" length="23.22" shape="647.94,326.88 654.79,324.32 660.85,323.51 664.86,325.34 665.58,330.68"/>
    </edge>
    <edge id=":gneJ43_4" function="internal">
        <lane id=":gneJ43_4_0" index="0" speed="7.12" length="16.17" shape="662.43,330.12 662.08,327.49 659.77,326.55 655.50,327.32 649.28,329.78"/>
    </edge>
    <edge id=":gneJ43_5" function="internal">
        <lane id=":gneJ43_5_0" index="0" speed="8.80" length="19.85" shape="662.43,330.12 662.01,326.59 659.28,324.10 654.24,322.63 646.89,322.19"/>
    </edge>
    <edge id=":gneJ46_0" function="internal">
        <lane id=":gneJ46_0_0" index="0" speed="13.89" length="20.13" shape="609.17,322.51 604.75,323.30 599.57,325.14 594.48,327.38 590.33,329.33"/>
    </edge>
    <edge id=":gneJ46_1" function="internal">
        <lane id=":gneJ46_1_0" index="0" speed="13.89" length="21.16" shape="609.17,322.51 588.04,321.42"/>
    </edge>
    <edge id=":gneJ46_2" function="internal">
        <lane id=":gneJ46_2_0" index="0" speed="13.89" length="20.91" shape="588.26,318.23 609.14,319.31"/>
    </edge>
    <edge id=":gneJ46_3" function="internal">
        <lane id=":gneJ46_3_0" index="0" speed="6.33" length="4.37" shape="588.26,318.23 592.03,319.77 592.17,320.03"/>
    </edge>
    <edge id=":gneJ46_6" function="internal">
        <lane id=":gneJ46_6_0" index="0" speed="6.33" length="11.02" shape="592.17,320.03 593.78,322.94 593.29,326.54 590.33,329.33"/>
    </edge>
    <edge id=":gneJ46_4" function="internal">
        <lane id=":gneJ46_4_0" index="0" speed="5.54" length="11.36" shape="588.98,326.44 592.37,324.50 593.35,323.02 591.90,322.00 588.04,321.42"/>
    </edge>
    <edge id=":gneJ46_5" function="internal">
        <lane id=":gneJ46_5_0" index="0" speed="13.89" length="21.48" shape="588.98,326.44 593.33,324.43 598.88,322.09 604.52,320.14 609.14,319.31"/>
    </edge>
    <edge id=":gneJ47_0" function="internal">
        <lane id=":gneJ47_0_0" index="0" speed="10.95" length="22.25" shape="550.10,326.64 546.16,323.61 541.42,322.44 535.89,323.14 529.57,325.70"/>
    </edge>
    <edge id=":gneJ47_1" function="internal">
        <lane id=":gneJ47_1_0" index="0" speed="13.89" length="25.42" shape="550.10,326.64 545.85,322.97 540.58,320.28 534.28,318.59 526.94,317.89"/>
    </edge>
    <edge id=":gneJ47_2" function="internal">
        <lane id=":gneJ47_2_0" index="0" speed="7.43" length="19.49" shape="550.10,326.64 546.47,321.55 546.13,318.07 549.09,316.20 555.33,315.95"/>
    </edge>
    <edge id=":gneJ47_3" function="internal">
        <lane id=":gneJ47_3_0" index="0" speed="5.47" length="9.78" shape="555.11,319.14 551.98,319.27 550.49,320.21 550.66,321.95 552.48,324.51"/>
    </edge>
    <edge id=":gneJ47_4" function="internal">
        <lane id=":gneJ47_4_0" index="0" speed="13.89" length="26.49" shape="555.11,319.14 549.64,319.69 542.13,321.42 534.73,323.65 529.57,325.70"/>
    </edge>
    <edge id=":gneJ47_5" function="internal">
        <lane id=":gneJ47_5_0" index="0" speed="13.89" length="28.19" shape="555.11,319.14 526.94,317.89"/>
    </edge>
    <edge id=":gneJ47_6" function="internal">
        <lane id=":gneJ47_6_0" index="0" speed="13.89" length="28.33" shape="527.03,314.69 555.33,315.95"/>
    </edge>
    <edge id=":gneJ47_7" function="internal">
        <lane id=":gneJ47_7_0" index="0" speed="13.89" length="13.32" shape="527.03,314.69 535.02,315.47 540.12,316.87"/>
    </edge>
    <edge id=":gneJ47_8" function="internal">
        <lane id=":gneJ47_8_0" index="0" speed="6.33" length="4.54" shape="527.03,314.69 530.85,316.08 531.10,316.47"/>
    </edge>
    <edge id=":gneJ47_12" function="internal">
        <lane id=":gneJ47_12_0" index="0" speed="13.89" length="14.71" shape="540.12,316.87 541.93,317.37 547.75,320.38 552.48,324.51"/>
    </edge>
    <edge id=":gneJ47_13" function="internal">
        <lane id=":gneJ47_13_0" index="0" speed="6.33" length="10.85" shape="531.10,316.47 532.74,319.17 532.40,322.78 529.57,325.70"/>
    </edge>
    <edge id=":gneJ47_9" function="internal">
        <lane id=":gneJ47_9_0" index="0" speed="5.55" length="11.38" shape="528.09,322.86 531.41,320.79 532.33,319.27 530.84,318.30 526.94,317.89"/>
    </edge>
    <edge id=":gneJ47_10" function="internal">
        <lane id=":gneJ47_10_0" index="0" speed="13.89" length="28.21" shape="528.09,322.86 533.52,320.76 541.50,318.41 549.59,316.56 555.33,315.95"/>
    </edge>
    <edge id=":gneJ47_11" function="internal">
        <lane id=":gneJ47_11_0" index="0" speed="11.92" length="26.50" shape="528.09,322.86 535.48,319.91 542.01,319.21 547.68,320.74 552.48,324.51"/>
    </edge>
    <edge id=":gneJ48_0" function="internal">
        <lane id=":gneJ48_0_0" index="0" speed="12.65" length="14.92" shape="489.31,324.73 485.75,321.21 482.54,318.68 479.68,317.13 477.17,316.57"/>
    </edge>
    <edge id=":gneJ48_1" function="internal">
        <lane id=":gneJ48_1_0" index="0" speed="7.42" length="19.19" shape="489.31,324.73 485.67,319.81 485.27,316.36 488.12,314.37 494.22,313.84"/>
    </edge>
    <edge id=":gneJ48_2" function="internal">
        <lane id=":gneJ48_2_0" index="0" speed="5.48" length="9.71" shape="494.13,317.04 491.05,317.30 489.61,318.31 489.81,320.06 491.65,322.55"/>
    </edge>
    <edge id=":gneJ48_3" function="internal">
        <lane id=":gneJ48_3_0" index="0" speed="13.89" length="16.97" shape="494.13,317.04 477.17,316.57"/>
    </edge>
    <edge id=":gneJ48_4" function="internal">
        <lane id=":gneJ48_4_0" index="0" speed="13.89" length="16.95" shape="477.27,313.37 494.22,313.84"/>
    </edge>
    <edge id=":gneJ48_5" function="internal">
        <lane id=":gneJ48_5_0" index="0" speed="13.65" length="5.66" shape="477.27,313.37 480.42,314.01 482.60,315.12"/>
    </edge>
    <edge id=":gneJ48_6" function="internal">
        <lane id=":gneJ48_6_0" index="0" speed="13.65" length="11.77" shape="482.60,315.12 483.86,315.76 487.61,318.60 491.65,322.55"/>
    </edge>
    <edge id=":gneJ49_0" function="internal">
        <lane id=":gneJ49_0_0" index="0" speed="3.90" length="2.59" shape="435.21,315.25 434.50,315.33 433.99,315.61 433.67,316.11 433.56,316.81"/>
    </edge>
    <edge id=":gneJ49_1" function="internal">
        <lane id=":gneJ49_1_0" index="0" speed="6.08" length="7.77" shape="430.36,316.72 430.71,314.62 431.66,313.14 433.19,312.28 435.31,312.05"/>
    </edge>

    <edge id="-gneE31" from="gneJ32" to="gneJ31" priority="-1">
        <lane id="-gneE31_0" index="0" speed="13.89" length="35.42" shape="482.37,378.08 446.96,377.36"/>
    </edge>
    <edge id="-gneE32" from="gneJ32" to="gneJ33" priority="-1">
        <lane id="-gneE32_0" index="0" speed="13.89" length="46.71" shape="482.73,374.89 529.44,375.95"/>
    </edge>
    <edge id="-gneE33" from="gneJ33" to="gneJ34" priority="-1">
        <lane id="-gneE33_0" index="0" speed="13.89" length="29.67" shape="558.62,376.76 588.28,377.70"/>
    </edge>
    <edge id="-gneE41" from="gneJ34" to="gneJ42" priority="-1">
        <lane id="-gneE41_0" index="0" speed="13.89" length="46.70" shape="605.10,378.42 651.69,381.57"/>
    </edge>
    <edge id="-gneE42" from="gneJ42" to="gneJ43" priority="-1">
        <lane id="-gneE42_0" index="0" speed="13.89" length="50.96" shape="653.37,380.26 662.43,330.12"/>
    </edge>
    <edge id="-gneE44" from="gneJ46" to="gneJ43" priority="-1">
        <lane id="-gneE44_0" index="0" speed="13.89" length="37.73" shape="609.14,319.31 646.87,318.99"/>
    </edge>
    <edge id="-gneE45" from="gneJ47" to="gneJ46" priority="-1">
        <lane id="-gneE45_0" index="0" speed="13.89" length="33.01" shape="555.33,315.95 588.26,318.23"/>
    </edge>
    <edge id="-gneE46" from="gneJ48" to="gneJ47" priority="-1">
        <lane id="-gneE46_0" index="0" speed="13.89" length="32.82" shape="494.22,313.84 527.03,314.69"/>
    </edge>
    <edge id="-gneE47" from="gneJ49" to="gneJ48" priority="-1">
        <lane id="-gneE47_0" index="0" speed="13.89" length="41.98" shape="435.31,312.05 477.27,313.37"/>
    </edge>
    <edge id="-gneE48" from="gneJ31" to="gneJ49" priority="-1">
        <lane id="-gneE48_0" index="0" speed="13.89" length="49.26" shape="429.09,365.96 430.36,316.72"/>
    </edge>
    <edge id="-gneE49" from="gneJ47" to="gneJ31" priority="-1">
        <lane id="-gneE49_0" index="0" speed="13.89" length="94.34" shape="529.57,325.70 445.86,369.22"/>
    </edge>
    <edge id="-gneE50" from="gneJ48" to="gneJ33" priority="-1">
        <lane id="-gneE50_0" index="0" speed="13.89" length="62.47" shape="491.65,322.55 534.25,368.24"/>
    </edge>
    <edge id="-gneE51" from="gneJ46" to="gneJ50" priority="-1">
        <lane id="-gneE51_0" index="0" speed="13.89" length="113.31" shape="590.33,329.33 487.72,377.41"/>
    </edge>
    <edge id="-gneE52" from="gneJ47" to="gneJ34" priority="-1">
        <lane id="-gneE52_0" index="0" speed="13.89" length="61.11" shape="552.48,324.51 593.24,370.04"/>
    </edge>
    <edge id="-gneE54" from="gneJ43" to="gneJ33" priority="-1">
        <lane id="-gneE54_0" index="0" speed="13.89" length="100.86" shape="649.28,329.78 557.64,371.91"/>
    </edge>
    <edge id="gneE31" from="gneJ31" to="gneJ32" priority="-1">
        <lane id="gneE31_0" index="0" speed="13.89" length="35.42" shape="447.02,374.16 482.43,374.88"/>
    </edge>
    <edge id="gneE32" from="gneJ33" to="gneJ32" priority="-1">
        <lane id="gneE32_0" index="0" speed="13.89" length="46.71" shape="529.36,379.14 482.66,378.09"/>
    </edge>
    <edge id="gneE33" from="gneJ34" to="gneJ33" priority="-1">
        <lane id="gneE33_0" index="0" speed="13.89" length="29.67" shape="588.18,380.90 558.52,379.96"/>
    </edge>
    <edge id="gneE41" from="gneJ42" to="gneJ34" priority="-1">
        <lane id="gneE41_0" index="0" speed="13.89" length="46.70" shape="651.47,384.76 604.88,381.61"/>
    </edge>
    <edge id="gneE42" from="gneJ43" to="gneJ42" priority="-1">
        <lane id="gneE42_0" index="0" speed="13.89" length="50.96" shape="665.58,330.68 656.52,380.83"/>
    </edge>
    <edge id="gneE44" from="gneJ43" to="gneJ46" priority="-1">
        <lane id="gneE44_0" index="0" speed="13.89" length="37.73" shape="646.89,322.19 609.17,322.51"/>
    </edge>
    <edge id="gneE45" from="gneJ46" to="gneJ47" priority="-1">
        <lane id="gneE45_0" index="0" speed="13.89" length="33.01" shape="588.04,321.42 555.11,319.14"/>
    </edge>
    <edge id="gneE46" from="gneJ47" to="gneJ48" priority="-1">
        <lane id="gneE46_0" index="0" speed="13.89" length="32.82" shape="526.94,317.89 494.13,317.04"/>
    </edge>
    <edge id="gneE47" from="gneJ48" to="gneJ49" priority="-1">
        <lane id="gneE47_0" index="0" speed="13.89" length="41.98" shape="477.17,316.57 435.21,315.25"/>
    </edge>
    <edge id="gneE48" from="gneJ49" to="gneJ31" priority="-1">
        <lane id="gneE48_0" index="0" speed="13.89" length="49.26" shape="433.56,316.81 432.29,366.05"/>
    </edge>
    <edge id="gneE49" from="gneJ31" to="gneJ47" priority="-1">
        <lane id="gneE49_0" index="0" speed="13.89" length="94.34" shape="444.39,366.38 528.09,322.86"/>
    </edge>
    <edge id="gneE50" from="gneJ33" to="gneJ48" priority="-1">
        <lane id="gneE50_0" index="0" speed="13.89" length="62.47" shape="531.91,370.42 489.31,324.73"/>
    </edge>
    <edge id="gneE51" from="gneJ50" to="gneJ46" priority="-1">
        <lane id="gneE51_0" index="0" speed="13.89" length="113.31" shape="486.36,374.51 588.98,326.44"/>
    </edge>
    <edge id="gneE52" from="gneJ34" to="gneJ47" priority="-1">
        <lane id="gneE52_0" index="0" speed="13.89" length="61.11" shape="590.85,372.18 550.10,326.64"/>
    </edge>
    <edge id="gneE54" from="gneJ33" to="gneJ43" priority="-1">
        <lane id="gneE54_0" index="0" speed="13.89" length="100.86" shape="556.31,369.01 647.94,326.88"/>
    </edge>

    <junction id="gneJ31" type="priority" x="430.45" y="375.43" incLanes="-gneE31_0 -gneE49_0 gneE48_0" intLanes=":gneJ31_0_0 :gneJ31_6_0 :gneJ31_2_0 :gneJ31_3_0 :gneJ31_4_0 :gneJ31_5_0" shape="446.92,378.96 447.05,372.56 446.60,370.64 443.65,364.96 440.64,366.41 438.18,367.36 436.28,367.80 434.93,367.74 434.14,367.17 433.89,366.09 427.49,365.92 427.94,369.80 429.51,372.99 432.19,375.50 435.99,377.34 440.90,378.49">
        <request index="0" response="000000" foes="001000" cont="0"/>
        <request index="1" response="110000" foes="111000" cont="1"/>
        <request index="2" response="100000" foes="100000" cont="0"/>
        <request index="3" response="100011" foes="100011" cont="0"/>
        <request index="4" response="000000" foes="000010" cont="0"/>
        <request index="5" response="000000" foes="001110" cont="0"/>
    </junction>
    <junction id="gneJ32" type="priority" x="482.55" y="376.49" incLanes="gneE32_0 gneE31_0" intLanes=":gneJ32_0_0 :gneJ32_1_0" shape="482.63,379.69 482.77,373.29 482.46,373.28 482.33,379.68">
        <request index="0" response="00" foes="00" cont="0"/>
        <request index="1" response="00" foes="00" cont="0"/>
    </junction>
    <junction id="gneJ33" type="priority" x="540.99" y="377.81" incLanes="gneE33_0 -gneE54_0 -gneE50_0 -gneE32_0" intLanes=":gneJ33_0_0 :gneJ33_12_0 :gneJ33_13_0 :gneJ33_3_0 :gneJ33_4_0 :gneJ33_5_0 :gneJ33_6_0 :gneJ33_7_0 :gneJ33_8_0 :gneJ33_9_0 :gneJ33_10_0 :gneJ33_11_0" shape="558.47,381.56 558.67,375.16 558.31,373.37 555.64,367.55 551.22,369.31 547.22,370.34 543.64,370.64 540.48,370.21 537.74,369.04 535.42,367.15 530.74,371.51 531.81,373.13 531.79,373.68 531.39,374.07 530.62,374.29 529.47,374.35 529.33,380.74">
        <request index="0"  response="000000000000" foes="000100010000" cont="0"/>
        <request index="1"  response="111000000000" foes="111100110000" cont="1"/>
        <request index="2"  response="110000000000" foes="110011110000" cont="1"/>
        <request index="3"  response="100000000000" foes="100010000000" cont="0"/>
        <request index="4"  response="100000000111" foes="100110000111" cont="0"/>
        <request index="5"  response="011000000110" foes="011110000110" cont="0"/>
        <request index="6"  response="010000000100" foes="010000000100" cont="0"/>
        <request index="7"  response="110000111100" foes="110000111100" cont="0"/>
        <request index="8"  response="110000110011" foes="110000110011" cont="0"/>
        <request index="9"  response="000000000000" foes="000000100010" cont="0"/>
        <request index="10" response="000000000000" foes="000111100110" cont="0"/>
        <request index="11" response="000000000000" foes="000110011110" cont="0"/>
    </junction>
    <junction id="gneJ34" type="priority" x="599.70" y="379.66" incLanes="gneE41_0 -gneE52_0 -gneE33_0" intLanes=":gneJ34_0_0 :gneJ34_6_0 :gneJ34_2_0 :gneJ34_3_0 :gneJ34_4_0 :gneJ34_5_0" shape="604.77,383.21 605.20,376.82 602.41,376.43 600.44,375.69 598.99,374.59 597.72,373.12 596.31,371.25 594.43,368.98 589.66,373.24 590.70,374.89 590.66,375.45 590.26,375.84 589.48,376.05 588.33,376.10 588.13,382.50">
        <request index="0" response="000000" foes="001000" cont="0"/>
        <request index="1" response="110000" foes="111000" cont="1"/>
        <request index="2" response="100000" foes="100000" cont="0"/>
        <request index="3" response="100011" foes="100011" cont="0"/>
        <request index="4" response="000000" foes="000010" cont="0"/>
        <request index="5" response="000000" foes="001110" cont="0"/>
    </junction>
    <junction id="gneJ42" type="priority" x="654.44" y="383.36" incLanes="gneE42_0 -gneE41_0" intLanes=":gneJ42_0_0 :gneJ42_1_0" shape="658.10,381.11 651.80,379.97 651.37,386.36 654.65,385.95 655.90,385.24 656.90,384.20 657.63,382.82">
        <request index="0" response="00" foes="00" cont="0"/>
        <request index="1" response="00" foes="00" cont="0"/>
    </junction>
    <junction id="gneJ43" type="priority" x="665.81" y="320.42" incLanes="-gneE44_0 gneE54_0 -gneE42_0" intLanes=":gneJ43_0_0 :gneJ43_6_0 :gneJ43_2_0 :gneJ43_3_0 :gneJ43_4_0 :gneJ43_5_0" shape="646.85,317.39 646.91,323.79 647.27,325.42 649.95,331.24 653.48,329.71 656.32,328.71 658.48,328.21 659.96,328.24 660.75,328.78 660.86,329.83 667.15,330.97 667.28,326.76 666.01,323.34 663.32,320.68 659.24,318.81 653.75,317.71">
        <request index="0" response="000000" foes="001000" cont="0"/>
        <request index="1" response="110000" foes="111000" cont="1"/>
        <request index="2" response="100000" foes="100000" cont="0"/>
        <request index="3" response="100011" foes="100011" cont="0"/>
        <request index="4" response="000000" foes="000010" cont="0"/>
        <request index="5" response="000000" foes="001110" cont="0"/>
    </junction>
    <junction id="gneJ46" type="priority" x="604.46" y="320.95" incLanes="gneE44_0 -gneE45_0 gneE51_0" intLanes=":gneJ46_0_0 :gneJ46_1_0 :gneJ46_2_0 :gneJ46_6_0 :gneJ46_4_0 :gneJ46_5_0" shape="609.18,324.11 609.13,317.71 588.37,316.63 587.93,323.01 588.30,324.99 591.01,330.78 594.73,328.87 597.47,327.25 599.76,325.94 602.12,324.97 605.08,324.35">
        <request index="0" response="000000" foes="001000" cont="0"/>
        <request index="1" response="000000" foes="111000" cont="0"/>
        <request index="2" response="000000" foes="100000" cont="0"/>
        <request index="3" response="000011" foes="100011" cont="1"/>
        <request index="4" response="000010" foes="000010" cont="0"/>
        <request index="5" response="001110" foes="001110" cont="0"/>
    </junction>
    <junction id="gneJ47" type="priority" x="543.37" y="316.72" incLanes="gneE52_0 gneE45_0 -gneE46_0 gneE49_0" intLanes=":gneJ47_0_0 :gneJ47_1_0 :gneJ47_2_0 :gneJ47_3_0 :gneJ47_4_0 :gneJ47_5_0 :gneJ47_6_0 :gneJ47_12_0 :gneJ47_13_0 :gneJ47_9_0 :gneJ47_10_0 :gneJ47_11_0" shape="548.91,327.71 553.68,323.44 552.64,321.81 552.67,321.27 553.08,320.91 553.85,320.73 555.00,320.73 555.44,314.35 527.07,313.09 526.90,319.49 527.35,321.44 530.31,327.12 534.25,325.35 537.86,324.33 541.12,324.06 544.06,324.53 546.65,325.75">
        <request index="0"  response="000100010000" foes="000100010000" cont="0"/>
        <request index="1"  response="111100110000" foes="111100110000" cont="0"/>
        <request index="2"  response="110011110000" foes="110011110000" cont="0"/>
        <request index="3"  response="000000000000" foes="100010000000" cont="0"/>
        <request index="4"  response="000000000000" foes="100110000111" cont="0"/>
        <request index="5"  response="000000000000" foes="011110000110" cont="0"/>
        <request index="6"  response="000000000000" foes="010000000100" cont="0"/>
        <request index="7"  response="000000111000" foes="110000111100" cont="1"/>
        <request index="8"  response="000000110000" foes="110000110011" cont="1"/>
        <request index="9"  response="000000100000" foes="000000100010" cont="0"/>
        <request index="10" response="000111100000" foes="000111100110" cont="0"/>
        <request index="11" response="000110011000" foes="000110011110" cont="0"/>
    </junction>
    <junction id="gneJ48" type="priority" x="482.55" y="315.13" incLanes="gneE50_0 gneE46_0 -gneE47_0" intLanes=":gneJ48_0_0 :gneJ48_1_0 :gneJ48_2_0 :gneJ48_3_0 :gneJ48_4_0 :gneJ48_6_0" shape="488.14,325.82 492.82,321.46 491.75,319.84 491.77,319.29 492.17,318.90 492.94,318.69 494.09,318.64 494.26,312.24 477.32,311.77 477.12,318.16 480.12,319.07 481.87,320.14 483.79,321.62 485.88,323.52">
        <request index="0" response="001000" foes="001000" cont="0"/>
        <request index="1" response="111000" foes="111000" cont="0"/>
        <request index="2" response="000000" foes="100000" cont="0"/>
        <request index="3" response="000000" foes="100011" cont="0"/>
        <request index="4" response="000000" foes="000010" cont="0"/>
        <request index="5" response="001100" foes="001110" cont="1"/>
    </junction>
    <junction id="gneJ49" type="priority" x="432.04" y="313.55" incLanes="gneE47_0 -gneE48_0" intLanes=":gneJ49_0_0 :gneJ49_1_0" shape="435.16,316.85 435.36,310.45 431.76,311.05 430.49,311.91 429.56,313.13 428.99,314.72 428.76,316.68">
        <request index="0" response="00" foes="00" cont="0"/>
        <request index="1" response="00" foes="00" cont="0"/>
    </junction>
    <junction id="gneJ50" type="dead_end" x="487.04" y="375.96" incLanes="-gneE51_0" intLanes="" shape="487.04,375.96 488.40,378.85 487.04,375.96"/>

    <junction id=":gneJ31_6_0" type="internal" x="442.74" y="375.36" incLanes=":gneJ31_1_0 gneE48_0" intLanes=":gneJ31_3_0 :gneJ31_4_0 :gneJ31_5_0"/>
    <junction id=":gneJ33_12_0" type="internal" x="545.51" y="378.00" incLanes=":gneJ33_1_0 -gneE32_0" intLanes=":gneJ33_4_0 :gneJ33_5_0 :gneJ33_8_0 :gneJ33_9_0 :gneJ33_10_0 :gneJ33_11_0"/>
    <junction id=":gneJ33_13_0" type="internal" x="554.60" y="378.25" incLanes=":gneJ33_2_0 -gneE32_0" intLanes=":gneJ33_4_0 :gneJ33_5_0 :gneJ33_6_0 :gneJ33_7_0 :gneJ33_10_0 :gneJ33_11_0"/>
    <junction id=":gneJ34_6_0" type="internal" x="599.89" y="379.80" incLanes=":gneJ34_1_0 -gneE33_0" intLanes=":gneJ34_3_0 :gneJ34_4_0 :gneJ34_5_0"/>
    <junction id=":gneJ43_6_0" type="internal" x="650.94" y="320.83" incLanes=":gneJ43_1_0 -gneE42_0" intLanes=":gneJ43_3_0 :gneJ43_4_0 :gneJ43_5_0"/>
    <junction id=":gneJ46_6_0" type="internal" x="592.17" y="320.03" incLanes=":gneJ46_3_0 gneE44_0" intLanes=":gneJ46_0_0 :gneJ46_1_0 :gneJ46_5_0"/>