<?xml version="1.0" encoding="UTF-8"?>

<!-- generated on Sun Oct  4 03:12:28 2020 by Eclipse SUMO duarouter Version 1.6.0
<configuration xmlns:xsi="http://www.w3.org/2001/XMLSchema-instance" xsi:noNamespaceSchemaLocation="http://sumo.dlr.de/xsd/duarouterConfiguration.xsd">

    <input>
        <net-file value="/root/workspace/dataset_public/mixed_loop/roundabout_merge_b/map.net.xml"/>
        <route-files value="/tmp/tmpg16llof8/trips.trips.xml"/>
    </input>

    <output>
        <output-file value="/root/workspace/dataset_public/mixed_loop/roundabout_merge_b/traffic/36_patient_car_0.5_impatient_car_0.5.rou.xml"/>
        <alternatives-output value="/root/workspace/dataset_public/mixed_loop/roundabout_merge_b/traffic/36_patient_car_0.5_impatient_car_0.5.rou.alt.xml"/>
    </output>

    <processing>
        <unsorted-input value="true"/>
        <repair value="true"/>
    </processing>

    <report>
        <error-log value="/tmp/smarts/_duarouter_routing/traffic/36_patient_car_0.5_impatient_car_0.5.log"/>
        <no-step-log value="true"/>
    </report>

    <random_number>
        <seed value="675"/>
    </random_number>

</configuration>
-->

<routes xmlns:xsi="http://www.w3.org/2001/XMLSchema-instance" xsi:noNamespaceSchemaLocation="http://sumo.dlr.de/xsd/routes_file.xsd">
    <vType id="actor-impatient_car-4742460627579910770" minGap="2.50" speedFactor="normc(0.50,0.20,0.20,2.00)" vClass="passenger" impatience="0.50" lcCooperative="0.5" lcImpatience="0" jmDriveAfterYellowTime="1.0" accel="2.6" decel="4.5" sigma="0.5"/>
    <vehicle id="-flow-random-route-01c6dedf-9eef-4327-92ee-979510f9ce4f--8259619052966634984-17-0.0" type="actor-impatient_car-4742460627579910770" depart="0.00" departLane="0" departPos="22.55" departSpeed="max" arrivalLane="0" arrivalPos="45.87">
        <route edges="edge-east-EN edge-north-NW edge-west-WS"/>
    </vehicle>
    <vType id="actor-patient_car-3888726044885832498" minGap="2.50" speedFactor="normc(0.50,0.20,0.20,2.00)" vClass="passenger" impatience="1.00" lcCooperative="0.25" lcImpatience="1" jmDriveAfterYellowTime="1.0" jmDriveAfterRedTime="1.5" accel="2.6" decel="4.5" sigma="0.5"/>
    <vehicle id="-flow-random-route-01c6dedf-9eef-4327-92ee-979510f9ce4f--8259619052966634984-17-1.0" type="actor-patient_car-3888726044885832498" depart="0.00" departLane="0" departPos="22.55" departSpeed="max" arrivalLane="0" arrivalPos="45.87">
        <route edges="edge-east-EN edge-north-NW edge-west-WS"/>
    </vehicle>
    <vehicle id="-flow-random-route-0df533ca-f742-4aa5-81d6-53e84cc956dc--8259619052966634984-5-0.0" type="actor-impatient_car-4742460627579910770" depart="0.00" departLane="0" departPos="35.12" departSpeed="max" arrivalLane="0" arrivalPos="17.64">
        <route edges="gneE69 gneE71 edge-west-WS edge-south-SE edge-east-EN edge-north-NW"/>
    </vehicle>
    <vehicle id="-flow-random-route-0df533ca-f742-4aa5-81d6-53e84cc956dc--8259619052966634984-5-1.0" type="actor-patient_car-3888726044885832498" depart="0.00" departLane="0" departPos="35.12" departSpeed="max" arrivalLane="0" arrivalPos="17.64">
        <route edges="gneE69 gneE71 edge-west-WS edge-south-SE edge-east-EN edge-north-NW"/>
    </vehicle>
    <vehicle id="-flow-random-route-17fd8965-d744-4c04-a28b-110fa1d4051e--8259619052966634984-7-0.0" type="actor-impatient_car-4742460627579910770" depart="0.00" departLane="1" departPos="24.48" departSpeed="max" arrivalLane="1" arrivalPos="94.33">
        <route edges="edge-north-NW edge-west-WS edge-south-SE edge-east-EN edge-north-NW edge-west-WS gneE60 gneE60.110 gneE61 gneE62"/>
    </vehicle>
    <vehicle id="-flow-random-route-17fd8965-d744-4c04-a28b-110fa1d4051e--8259619052966634984-7-1.0" type="actor-patient_car-3888726044885832498" depart="0.00" departLane="1" departPos="24.48" departSpeed="max" arrivalLane="1" arrivalPos="94.33">
        <route edges="edge-north-NW edge-west-WS edge-south-SE edge-east-EN edge-north-NW edge-west-WS gneE60 gneE60.110 gneE61 gneE62"/>
    </vehicle>
    <vehicle id="-flow-random-route-1fe20d59-d895-4e13-9b63-e54c2bfe1569--8259619052966634984-8-0.0" type="actor-impatient_car-4742460627579910770" depart="0.00" departLane="0" departPos="16.21" departSpeed="max" arrivalLane="1" arrivalPos="149.61">
        <route edges="edge-east-EN edge-north-NW edge-west-WS edge-south-SE edge-east-EN edge-north-NW edge-west-WS gneE60 gneE60.110 gneE61"/>
    </vehicle>
    <vehicle id="-flow-random-route-1fe20d59-d895-4e13-9b63-e54c2bfe1569--8259619052966634984-8-1.0" type="actor-patient_car-3888726044885832498" depart="0.00" departLane="0" departPos="16.21" departSpeed="max" arrivalLane="1" arrivalPos="149.61">
        <route edges="edge-east-EN edge-north-NW edge-west-WS edge-south-SE edge-east-EN edge-north-NW edge-west-WS gneE60 gneE60.110 gneE61"/>
    </vehicle>
    <vehicle id="-flow-random-route-486d1926-a159-4e46-ac7c-14b261e0ce22--8259619052966634984-12-0.0" type="actor-impatient_car-4742460627579910770" depart="0.00" departLane="1" departPos="70.77" departSpeed="max" arrivalLane="0" arrivalPos="46.66">
        <route edges="gneE69 gneE71 edge-west-WS gneE60 gneE60.110"/>
    </vehicle>
    <vehicle id="-flow-random-route-486d1926-a159-4e46-ac7c-14b261e0ce22--8259619052966634984-12-1.0" type="actor-patient_car-3888726044885832498" depart="0.00" departLane="1" departPos="70.77" departSpeed="max" arrivalLane="0" arrivalPos="46.66">
        <route edges="gneE69 gneE71 edge-west-WS gneE60 gneE60.110"/>
    </vehicle>
    <vehicle id="-flow-random-route-56624a62-fd0f-43a9-bc7d-6371df18cdcd--8259619052966634984-0-0.0" type="actor-impatient_car-4742460627579910770" depart="0.00" departLane="1" departPos="14.20" departSpeed="max" arrivalLane="0" arrivalPos="65.63">
        <route edges="gneE78 gneE81 gneE60.110 gneE61 gneE62"/>
    </vehicle>
    <vehicle id="-flow-random-route-56624a62-fd0f-43a9-bc7d-6371df18cdcd--8259619052966634984-0-1.0" type="actor-patient_car-3888726044885832498" depart="0.00" departLane="1" departPos="14.20" departSpeed="max" arrivalLane="0" arrivalPos="65.63">
        <route edges="gneE78 gneE81 gneE60.110 gneE61 gneE62"/>
    </vehicle>
    <vehicle id="-flow-random-route-5e37bfba-9502-4e6b-a483-de6c759e24d2--8259619052966634984-3-0.0" type="actor-impatient_car-4742460627579910770" depart="0.00" departLane="0" departPos="61.47" departSpeed="max" arrivalLane="0" arrivalPos="37.35">
        <route edges="gneE69 gneE71 edge-west-WS edge-south-SE edge-east-EN edge-north-NW"/>
    </vehicle>
    <vehicle id="-flow-random-route-5e37bfba-9502-4e6b-a483-de6c759e24d2--8259619052966634984-3-1.0" type="actor-patient_car-3888726044885832498" depart="0.00" departLane="0" departPos="61.47" departSpeed="max" arrivalLane="0" arrivalPos="37.35">
        <route edges="gneE69 gneE71 edge-west-WS edge-south-SE edge-east-EN edge-north-NW"/>
    </vehicle>
    <vehicle id="-flow-random-route-624014b9-a3fe-46b6-b652-d7c0eadb0841--8259619052966634984-16-0.0" type="actor-impatient_car-4742460627579910770" depart="0.00" departLane="1" departPos="13.81" departSpeed="max" arrivalLane="0" arrivalPos="10.63">
        <route edges="gneE60.110 gneE61 gneE62 gneE78 gneE81 gneE60.110 gneE61 gneE62 gneE69 gneE71"/>
    </vehicle>
    <vehicle id="-flow-random-route-624014b9-a3fe-46b6-b652-d7c0eadb0841--8259619052966634984-16-1.0" type="actor-patient_car-3888726044885832498" depart="0.00" departLane="1" departPos="13.81" departSpeed="max" arrivalLane="0" arrivalPos="10.63">
        <route edges="gneE60.110 gneE61 gneE62 gneE78 gneE81 gneE60.110 gneE61 gneE62 gneE69 gneE71"/>
    </vehicle>
    <vehicle id="-flow-random-route-72286acf-cfb9-4037-ad88-05152a72b4b3--8259619052966634984-11-0.0" type="actor-impatient_car-4742460627579910770" depart="0.00" departLane="0" departPos="88.68" departSpeed="max" arrivalLane="1" arrivalPos="39.23">
        <route edges="gneE81 gneE60.110 gneE61 gneE62 gneE69 gneE71 edge-west-WS edge-south-SE edge-east-EN edge-north-NW"/>
    </vehicle>
    <vehicle id="-flow-random-route-72286acf-cfb9-4037-ad88-05152a72b4b3--8259619052966634984-11-1.0" type="actor-patient_car-3888726044885832498" depart="0.00" departLane="0" departPos="88.68" departSpeed="max" arrivalLane="1" arrivalPos="39.23">
        <route edges="gneE81 gneE60.110 gneE61 gneE62 gneE69 gneE71 edge-west-WS edge-south-SE edge-east-EN edge-north-NW"/>
    </vehicle>
    <vehicle id="-flow-random-route-75fe91e0-dd6a-4779-9a46-4e47255e09fe--8259619052966634984-1-0.0" type="actor-impatient_car-4742460627579910770" depart="0.00" departLane="0" departPos="8.11" departSpeed="max" arrivalLane="0" arrivalPos="6.91">
        <route edges="gneE80 edge-east-EN edge-north-NW edge-west-WS gneE60 gneE60.110 gneE61 gneE62 gneE69 gneE71"/>
    </vehicle>
    <vehicle id="-flow-random-route-75fe91e0-dd6a-4779-9a46-4e47255e09fe--8259619052966634984-1-1.0" type="actor-patient_car-3888726044885832498" depart="0.00" departLane="0" departPos="8.11" departSpeed="max" arrivalLane="0" arrivalPos="6.91">
        <route edges="gneE80 edge-east-EN edge-north-NW edge-west-WS gneE60 gneE60.110 gneE61 gneE62 gneE69 gneE71"/>
    </vehicle>
    <vehicle id="-flow-random-route-85bdce82-6109-4818-a15b-50a058e8ba33--8259619052966634984-2-0.0" type="actor-impatient_car-4742460627579910770" depart="0.00" departLane="1" departPos="23.67" departSpeed="max" arrivalLane="1" arrivalPos="25.48">
        <route edges="edge-north-NW edge-west-WS gneE60 gneE60.110 gneE61"/>
    </vehicle>
    <vehicle id="-flow-random-route-85bdce82-6109-4818-a15b-50a058e8ba33--8259619052966634984-2-1.0" type="actor-patient_car-3888726044885832498" depart="0.00" departLane="1" departPos="23.67" departSpeed="max" arrivalLane="1" arrivalPos="25.48">
        <route edges="edge-north-NW edge-west-WS gneE60 gneE60.110 gneE61"/>
    </vehicle>
    <vehicle id="-flow-random-route-8d763ca1-4bbb-439a-be00-e2f787de318a--8259619052966634984-14-0.0" type="actor-impatient_car-4742460627579910770" depart="0.00" departLane="0" departPos="47.42" departSpeed="max" arrivalLane="0" arrivalPos="66.86">
        <route edges="gneE81 gneE60.110 gneE61 gneE62 gneE78 gneE81 gneE60.110 gneE61 gneE62 gneE69"/>
    </vehicle>
    <vehicle id="-flow-random-route-8d763ca1-4bbb-439a-be00-e2f787de318a--8259619052966634984-14-1.0" type="actor-patient_car-3888726044885832498" depart="0.00" departLane="0" departPos="47.42" departSpeed="max" arrivalLane="0" arrivalPos="66.86">
        <route edges="gneE81 gneE60.110 gneE61 gneE62 gneE78 gneE81 gneE60.110 gneE61 gneE62 gneE69"/>
    </vehicle>
    <vehicle id="-flow-random-route-a5a1e81d-04d1-46df-ae45-6232667e1a59--8259619052966634984-9-0.0" type="actor-impatient_car-4742460627579910770" depart="0.00" departLane="0" departPos="22.71" departSpeed="max" arrivalLane="1" arrivalPos="31.26">
        <route edges="gneE78 gneE81 gneE60.110"/>
    </vehicle>
    <vehicle id="-flow-random-route-a5a1e81d-04d1-46df-ae45-6232667e1a59--8259619052966634984-9-1.0" type="actor-patient_car-3888726044885832498" depart="0.00" departLane="0" departPos="22.71" departSpeed="max" arrivalLane="1" arrivalPos="31.26">
        <route edges="gneE78 gneE81 gneE60.110"/>
    </vehicle>
    <vehicle id="-flow-random-route-cdfd7f8e-9ec7-4dac-bc65-3939649e2fb9--8259619052966634984-10-0.0" type="actor-impatient_car-4742460627579910770" depart="0.00" departLane="1" departPos="106.45" departSpeed="max" arrivalLane="0" arrivalPos="3.14">
        <route edges="gneE69 gneE71 edge-west-WS gneE60 gneE60.110"/>
    </vehicle>
    <vehicle id="-flow-random-route-cdfd7f8e-9ec7-4dac-bc65-3939649e2fb9--8259619052966634984-10-1.0" type="actor-patient_car-3888726044885832498" depart="0.00" departLane="1" departPos="106.45" departSpeed="max" arrivalLane="0" arrivalPos="3.14">
        <route edges="gneE69 gneE71 edge-west-WS gneE60 gneE60.110"/>
    </vehicle>
    <vehicle id="-flow-random-route-cf08cb11-b5d8-4570-af38-4f728d86aba0--8259619052966634984-15-0.0" type="actor-impatient_car-4742460627579910770" depart="0.00" departLane="0" departPos="92.92" departSpeed="max" arrivalLane="1" arrivalPos="44.47">
        <route edges="gneE61 gneE62 gneE78 gneE81 gneE60.110"/>
    </vehicle>
    <vehicle id="-flow-random-route-cf08cb11-b5d8-4570-af38-4f728d86aba0--8259619052966634984-15-1.0" type="actor-patient_car-3888726044885832498" depart="0.00" departLane="0" departPos="92.92" departSpeed="max" arrivalLane="1" arrivalPos="44.47">
        <route edges="gneE61 gneE62 gneE78 gneE81 gneE60.110"/>
    </vehicle>
    <vehicle id="-flow-random-route-dd758910-43f3-42d3-8c55-4fb8f4a321f7--8259619052966634984-4-0.0" type="actor-impatient_car-4742460627579910770" depart="0.00" departLane="1" departPos="5.75" departSpeed="max" arrivalLane="1" arrivalPos="17.04">
        <route edges="edge-north-NW edge-west-WS gneE60 gneE60.110 gneE61 gneE62 gneE69 gneE71 edge-west-WS edge-south-SE"/>
    </vehicle>
    <vehicle id="-flow-random-route-dd758910-43f3-42d3-8c55-4fb8f4a321f7--8259619052966634984-4-1.0" type="actor-patient_car-3888726044885832498" depart="0.00" departLane="1" departPos="5.75" departSpeed="max" arrivalLane="1" arrivalPos="17.04">
        <route edges="edge-north-NW edge-west-WS gneE60 gneE60.110 gneE61 gneE62 gneE69 gneE71 edge-west-WS edge-south-SE"/>
    </vehicle>
    <vehicle id="-flow-random-route-e279de5a-596c-468f-9fd2-0706f3df6adb--8259619052966634984-13-0.0" type="actor-impatient_car-4742460627579910770" depart="0.00" departLane="1" departPos="59.43" departSpeed="max" arrivalLane="1" arrivalPos="41.36">
        <route edges="edge-east-EN edge-north-NW"/>
    </vehicle>
    <vehicle id="-flow-random-route-e279de5a-596c-468f-9fd2-0706f3df6adb--8259619052966634984-13-1.0" type="actor-patient_car-3888726044885832498" depart="0.00" departLane="1" departPos="59.43" departSpeed="max" arrivalLane="1" arrivalPos="41.36">
        <route edges="edge-east-EN edge-north-NW"/>
    </vehicle>
    <vehicle id="-flow-random-route-f9aa61ee-a109-44d1-9179-2f4a96a85097--8259619052966634984-6-0.0" type="actor-impatient_car-4742460627579910770" depart="0.00" departLane="1" departPos="3.97" departSpeed="max" arrivalLane="0" arrivalPos="13.63">
        <route edges="gneE61 gneE62 gneE69 gneE71 edge-west-WS edge-south-SE"/>
    </vehicle>
    <vehicle id="-flow-random-route-f9aa61ee-a109-44d1-9179-2f4a96a85097--8259619052966634984-6-1.0" type="actor-patient_car-3888726044885832498" depart="0.00" departLane="1" departPos="3.97" departSpeed="max" arrivalLane="0" arrivalPos="13.63">
        <route edges="gneE61 gneE62 gneE69 gneE71 edge-west-WS edge-south-SE"/>
    </vehicle>
    <vehicle id="-flow-random-route-01c6dedf-9eef-4327-92ee-979510f9ce4f--8259619052966634984-17-0.1" type="actor-impatient_car-4742460627579910770" depart="240.00" departLane="0" departPos="22.55" departSpeed="max" arrivalLane="0" arrivalPos="45.87">
        <route edges="edge-east-EN edge-north-NW edge-west-WS"/>
    </vehicle>
    <vehicle id="-flow-random-route-01c6dedf-9eef-4327-92ee-979510f9ce4f--8259619052966634984-17-1.1" type="actor-patient_car-3888726044885832498" depart="240.00" departLane="0" departPos="22.55" departSpeed="max" arrivalLane="0" arrivalPos="45.87">
        <route edges="edge-east-EN edge-north-NW edge-west-WS"/>
    </vehicle>
    <vehicle id="-flow-random-route-0df533ca-f742-4aa5-81d6-53e84cc956dc--8259619052966634984-5-0.1" type="actor-impatient_car-4742460627579910770" depart="240.00" departLane="0" departPos="35.12" departSpeed="max" arrivalLane="0" arrivalPos="17.64">
        <route edges="gneE69 gneE71 edge-west-WS edge-south-SE edge-east-EN edge-north-NW"/>
    </vehicle>
    <vehicle id="-flow-random-route-0df533ca-f742-4aa5-81d6-53e84cc956dc--8259619052966634984-5-1.1" type="actor-patient_car-3888726044885832498" depart="240.00" departLane="0" departPos="35.12" departSpeed="max" arrivalLane="0" arrivalPos="17.64">
        <route edges="gneE69 gneE71 edge-west-WS edge-south-SE edge-east-EN edge-north-NW"/>
    </vehicle>
    <vehicle id="-flow-random-route-17fd8965-d744-4c04-a28b-110fa1d4051e--8259619052966634984-7-0.1" type="actor-impatient_car-4742460627579910770" depart="240.00" departLane="1" departPos="24.48" departSpeed="max" arrivalLane="1" arrivalPos="94.33">
        <route edges="edge-north-NW edge-west-WS edge-south-SE edge-east-EN edge-north-NW edge-west-WS gneE60 gneE60.110 gneE61 gneE62"/>
    </vehicle>
    <vehicle id="-flow-random-route-17fd8965-d744-4c04-a28b-110fa1d4051e--8259619052966634984-7-1.1" type="actor-patient_car-3888726044885832498" depart="240.00" departLane="1" departPos="24.48" departSpeed="max" arrivalLane="1" arrivalPos="94.33">
        <route edges="edge-north-NW edge-west-WS edge-south-SE edge-east-EN edge-north-NW edge-west-WS gneE60 gneE60.110 gneE61 gneE62"/>
    </vehicle>
    <vehicle id="-flow-random-route-1fe20d59-d895-4e13-9b63-e54c2bfe1569--8259619052966634984-8-0.1" type="actor-impatient_car-4742460627579910770" depart="240.00" departLane="0" departPos="16.21" departSpeed="max" arrivalLane="1" arrivalPos="149.61">
        <route edges="edge-east-EN edge-north-NW edge-west-WS edge-south-SE edge-east-EN edge-north-NW edge-west-WS gneE60 gneE60.110 gneE61"/>
    </vehicle>
    <vehicle id="-flow-random-route-1fe20d59-d895-4e13-9b63-e54c2bfe1569--8259619052966634984-8-1.1" type="actor-patient_car-3888726044885832498" depart="240.00" departLane="0" departPos="16.21" departSpeed="max" arrivalLane="1" arrivalPos="149.61">
        <route edges="edge-east-EN edge-north-NW edge-west-WS edge-south-SE edge-east-EN edge-north-NW edge-west-WS gneE60 gneE60.110 gneE61"/>
    </vehicle>
    <vehicle id="-flow-random-route-486d1926-a159-4e46-ac7c-14b261e0ce22--8259619052966634984-12-0.1" type="actor-impatient_car-4742460627579910770" depart="240.00" departLane="1" departPos="70.77" departSpeed="max" arrivalLane="0" arrivalPos="46.66">
        <route edges="gneE69 gneE71 edge-west-WS gneE60 gneE60.110"/>
    </vehicle>
    <vehicle id="-flow-random-route-486d1926-a159-4e46-ac7c-14b261e0ce22--8259619052966634984-12-1.1" type="actor-patient_car-3888726044885832498" depart="240.00" departLane="1" departPos="70.77" departSpeed="max" arrivalLane="0" arrivalPos="46.66">
        <route edges="gneE69 gneE71 edge-west-WS gneE60 gneE60.110"/>
    </vehicle>
    <vehicle id="-flow-random-route-56624a62-fd0f-43a9-bc7d-6371df18cdcd--8259619052966634984-0-0.1" type="actor-impatient_car-4742460627579910770" depart="240.00" departLane="1" departPos="14.20" departSpeed="max" arrivalLane="0" arrivalPos="65.63">
        <route edges="gneE78 gneE81 gneE60.110 gneE61 gneE62"/>
    </vehicle>
    <vehicle id="-flow-random-route-56624a62-fd0f-43a9-bc7d-6371df18cdcd--8259619052966634984-0-1.1" type="actor-patient_car-3888726044885832498" depart="240.00" departLane="1" departPos="14.20" departSpeed="max" arrivalLane="0" arrivalPos="65.63">
        <route edges="gneE78 gneE81 gneE60.110 gneE61 gneE62"/>
    </vehicle>
    <vehicle id="-flow-random-route-5e37bfba-9502-4e6b-a483-de6c759e24d2--8259619052966634984-3-0.1" type="actor-impatient_car-4742460627579910770" depart="240.00" departLane="0" departPos="61.47" departSpeed="max" arrivalLane="0" arrivalPos="37.35">
        <route edges="gneE69 gneE71 edge-west-WS edge-south-SE edge-east-EN edge-north-NW"/>
    </vehicle>
    <vehicle id="-flow-random-route-5e37bfba-9502-4e6b-a483-de6c759e24d2--8259619052966634984-3-1.1" type="actor-patient_car-3888726044885832498" depart="240.00" departLane="0" departPos="61.47" departSpeed="max" arrivalLane="0" arrivalPos="37.35">
        <route edges="gneE69 gneE71 edge-west-WS edge-south-SE edge-east-EN edge-north-NW"/>
    </vehicle>
    <vehicle id="-flow-random-route-624014b9-a3fe-46b6-b652-d7c0eadb0841--8259619052966634984-16-0.1" type="actor-impatient_car-4742460627579910770" depart="240.00" departLane="1" departPos="13.81" departSpeed="max" arrivalLane="0" arrivalPos="10.63">
        <route edges="gneE60.110 gneE61 gneE62 gneE78 gneE81 gneE60.110 gneE61 gneE62 gneE69 gneE71"/>
    </vehicle>
    <vehicle id="-flow-random-route-624014b9-a3fe-46b6-b652-d7c0eadb0841--8259619052966634984-16-1.1" type="actor-patient_car-3888726044885832498" depart="240.00" departLane="1" departPos="13.81" departSpeed="max" arrivalLane="0" arrivalPos="10.63">
        <route edges="gneE60.110 gneE61 gneE62 gneE78 gneE81 gneE60.110 gneE61 gneE62 gneE69 gneE71"/>
    </vehicle>
    <vehicle id="-flow-random-route-72286acf-cfb9-4037-ad88-05152a72b4b3--8259619052966634984-11-0.1" type="actor-impatient_car-4742460627579910770" depart="240.00" departLane="0" departPos="88.68" departSpeed="max" arrivalLane="1" arrivalPos="39.23">
        <route edges="gneE81 gneE60.110 gneE61 gneE62 gneE69 gneE71 edge-west-WS edge-south-SE edge-east-EN edge-north-NW"/>
    </vehicle>
    <vehicle id="-flow-random-route-72286acf-cfb9-4037-ad88-05152a72b4b3--8259619052966634984-11-1.1" type="actor-patient_car-3888726044885832498" depart="240.00" departLane="0" departPos="88.68" departSpeed="max" arrivalLane="1" arrivalPos="39.23">
        <route edges="gneE81 gneE60.110 gneE61 gneE62 gneE69 gneE71 edge-west-WS edge-south-SE edge-east-EN edge-north-NW"/>
    </vehicle>
    <vehicle id="-flow-random-route-75fe91e0-dd6a-4779-9a46-4e47255e09fe--8259619052966634984-1-0.1" type="actor-impatient_car-4742460627579910770" depart="240.00" departLane="0" departPos="8.11" departSpeed="max" arrivalLane="0" arrivalPos="6.91">
        <route edges="gneE80 edge-east-EN edge-north-NW edge-west-WS gneE60 gneE60.110 gneE61 gneE62 gneE69 gneE71"/>
    </vehicle>
    <vehicle id="-flow-random-route-75fe91e0-dd6a-4779-9a46-4e47255e09fe--8259619052966634984-1-1.1" type="actor-patient_car-3888726044885832498" depart="240.00" departLane="0" departPos="8.11" departSpeed="max" arrivalLane="0" arrivalPos="6.91">
        <route edges="gneE80 edge-east-EN edge-north-NW edge-west-WS gneE60 gneE60.110 gneE61 gneE62 gneE69 gneE71"/>
    </vehicle>
    <vehicle id="-flow-random-route-85bdce82-6109-4818-a15b-50a058e8ba33--8259619052966634984-2-0.1" type="actor-impatient_car-4742460627579910770" depart="240.00" departLane="1" departPos="23.67" departSpeed="max" arrivalLane="1" arrivalPos="25.48">
        <route edges="edge-north-NW edge-west-WS gneE60 gneE60.110 gneE61"/>
    </vehicle>
    <vehicle id="-flow-random-route-85bdce82-6109-4818-a15b-50a058e8ba33--8259619052966634984-2-1.1" type="actor-patient_car-3888726044885832498" depart="240.00" departLane="1" departPos="23.67" departSpeed="max" arrivalLane="1" arrivalPos="25.48">
        <route edges="edge-north-NW edge-west-WS gneE60 gneE60.110 gneE61"/>
    </vehicle>
    <vehicle id="-flow-random-route-8d763ca1-4bbb-439a-be00-e2f787de318a--8259619052966634984-14-0.1" type="actor-impatient_car-4742460627579910770" depart="240.00" departLane="0" departPos="47.42" departSpeed="max" arrivalLane="0" arrivalPos="66.86">
        <route edges="gneE81 gneE60.110 gneE61 gneE62 gneE78 gneE81 gneE60.110 gneE61 gneE62 gneE69"/>
    </vehicle>
    <vehicle id="-flow-random-route-8d763ca1-4bbb-439a-be00-e2f787de318a--8259619052966634984-14-1.1" type="actor-patient_car-3888726044885832498" depart="240.00" departLane="0" departPos="47.42" departSpeed="max" arrivalLane="0" arrivalPos="66.86">
        <route edges="gneE81 gneE60.110 gneE61 gneE62 gneE78 gneE81 gneE60.110 gneE61 gneE62 gneE69"/>
    </vehicle>
    <vehicle id="-flow-random-route-a5a1e81d-04d1-46df-ae45-6232667e1a59--8259619052966634984-9-0.1" type="actor-impatient_car-4742460627579910770" depart="240.00" departLane="0" departPos="22.71" departSpeed="max" arrivalLane="1" arrivalPos="31.26">
        <route edges="gneE78 gneE81 gneE60.110"/>
    </vehicle>
    <vehicle id="-flow-random-route-a5a1e81d-04d1-46df-ae45-6232667e1a59--8259619052966634984-9-1.1" type="actor-patient_car-3888726044885832498" depart="240.00" departLane="0" departPos="22.71" departSpeed="max" arrivalLane="1" arrivalPos="31.26">
        <route edges="gneE78 gneE81 gneE60.110"/>
    </vehicle>
    <vehicle id="-flow-random-route-cdfd7f8e-9ec7-4dac-bc65-3939649e2fb9--8259619052966634984-10-0.1" type="actor-impatient_car-4742460627579910770" depart="240.00" departLane="1" departPos="106.45" departSpeed="max" arrivalLane="0" arrivalPos="3.14">
        <route edges="gneE69 gneE71 edge-west-WS gneE60 gneE60.110"/>
    </vehicle>
    <vehicle id="-flow-random-route-cdfd7f8e-9ec7-4dac-bc65-3939649e2fb9--8259619052966634984-10-1.1" type="actor-patient_car-3888726044885832498" depart="240.00" departLane="1" departPos="106.45" departSpeed="max" arrivalLane="0" arrivalPos="3.14">
        <route edges="gneE69 gneE71 edge-west-WS gneE60 gneE60.110"/>
    </vehicle>
    <vehicle id="-flow-random-route-cf08cb11-b5d8-4570-af38-4f728d86aba0--8259619052966634984-15-0.1" type="actor-impatient_car-4742460627579910770" depart="240.00" departLane="0" departPos="92.92" departSpeed="max" arrivalLane="1" arrivalPos="44.47">
        <route edges="gneE61 gneE62 gneE78 gneE81 gneE60.110"/>
    </vehicle>
    <vehicle id="-flow-random-route-cf08cb11-b5d8-4570-af38-4f728d86aba0--8259619052966634984-15-1.1" type="actor-patient_car-3888726044885832498" depart="240.00" departLane="0" departPos="92.92" departSpeed="max" arrivalLane="1" arrivalPos="44.47">
        <route edges="gneE61 gneE62 gneE78 gneE81 gneE60.110"/>
    </vehicle>
    <vehicle id="-flow-random-route-dd758910-43f3-42d3-8c55-4fb8f4a321f7--8259619052966634984-4-0.1" type="actor-impatient_car-4742460627579910770" depart="240.00" departLane="1" departPos="5.75" departSpeed="max" arrivalLane="1" arrivalPos="17.04">
        <route edges="edge-north-NW edge-west-WS gneE60 gneE60.110 gneE61 gneE62 gneE69 gneE71 edge-west-WS edge-south-SE"/>
    </vehicle>
    <vehicle id="-flow-random-route-dd758910-43f3-42d3-8c55-4fb8f4a321f7--8259619052966634984-4-1.1" type="actor-patient_car-3888726044885832498" depart="240.00" departLane="1" departPos="5.75" departSpeed="max" arrivalLane="1" arrivalPos="17.04">
        <route edges="edge-north-NW edge-west-WS gneE60 gneE60.110 gneE61 gneE62 gneE69 gneE71 edge-west-WS edge-south-SE"/>
    </vehicle>
    <vehicle id="-flow-random-route-e279de5a-596c-468f-9fd2-0706f3df6adb--8259619052966634984-13-0.1" type="actor-impatient_car-4742460627579910770" depart="240.00" departLane="1" departPos="59.43" departSpeed="max" arrivalLane="1" arrivalPos="41.36">
        <route edges="edge-east-EN edge-north-NW"/>
    </vehicle>
    <vehicle id="-flow-random-route-e279de5a-596c-468f-9fd2-0706f3df6adb--8259619052966634984-13-1.1" type="actor-patient_car-3888726044885832498" depart="240.00" departLane="1" departPos="59.43" departSpeed="max" arrivalLane="1" arrivalPos="41.36">
        <route edges="edge-east-EN edge-north-NW"/>
    </vehicle>
    <vehicle id="-flow-random-route-f9aa61ee-a109-44d1-9179-2f4a96a85097--8259619052966634984-6-0.1" type="actor-impatient_car-4742460627579910770" depart="240.00" departLane="1" departPos="3.97" departSpeed="max" arrivalLane="0" arrivalPos="13.63">
        <route edges="gneE61 gneE62 gneE69 gneE71 edge-west-WS edge-south-SE"/>
    </vehicle>
    <vehicle id="-flow-random-route-f9aa61ee-a109-44d1-9179-2f4a96a85097--8259619052966634984-6-1.1" type="actor-patient_car-3888726044885832498" depart="240.00" departLane="1" departPos="3.97" departSpeed="max" arrivalLane="0" arrivalPos="13.63">
        <route edges="gneE61 gneE62 gneE69 gneE71 edge-west-WS edge-south-SE"/>
    </vehicle>
    <vehicle id="-flow-random-route-01c6dedf-9eef-4327-92ee-979510f9ce4f--8259619052966634984-17-0.2" type="actor-impatient_car-4742460627579910770" depart="480.00" departLane="0" departPos="22.55" departSpeed="max" arrivalLane="0" arrivalPos="45.87">
        <route edges="edge-east-EN edge-north-NW edge-west-WS"/>
    </vehicle>
    <vehicle id="-flow-random-route-01c6dedf-9eef-4327-92ee-979510f9ce4f--8259619052966634984-17-1.2" type="actor-patient_car-3888726044885832498" depart="480.00" departLane="0" departPos="22.55" departSpeed="max" arrivalLane="0" arrivalPos="45.87">
        <route edges="edge-east-EN edge-north-NW edge-west-WS"/>
    </vehicle>
    <vehicle id="-flow-random-route-0df533ca-f742-4aa5-81d6-53e84cc956dc--8259619052966634984-5-0.2" type="actor-impatient_car-4742460627579910770" depart="480.00" departLane="0" departPos="35.12" departSpeed="max" arrivalLane="0" arrivalPos="17.64">
        <route edges="gneE69 gneE71 edge-west-WS edge-south-SE edge-east-EN edge-north-NW"/>
    </vehicle>
    <vehicle id="-flow-random-route-0df533ca-f742-4aa5-81d6-53e84cc956dc--8259619052966634984-5-1.2" type="actor-patient_car-3888726044885832498" depart="480.00" departLane="0" departPos="35.12" departSpeed="max" arrivalLane="0" arrivalPos="17.64">
        <route edges="gneE69 gneE71 edge-west-WS edge-south-SE edge-east-EN edge-north-NW"/>
    </vehicle>
    <vehicle id="-flow-random-route-17fd8965-d744-4c04-a28b-110fa1d4051e--8259619052966634984-7-0.2" type="actor-impatient_car-4742460627579910770" depart="480.00" departLane="1" departPos="24.48" departSpeed="max" arrivalLane="1" arrivalPos="94.33">
        <route edges="edge-north-NW edge-west-WS edge-south-SE edge-east-EN edge-north-NW edge-west-WS gneE60 gneE60.110 gneE61 gneE62"/>
    </vehicle>
    <vehicle id="-flow-random-route-17fd8965-d744-4c04-a28b-110fa1d4051e--8259619052966634984-7-1.2" type="actor-patient_car-3888726044885832498" depart="480.00" departLane="1" departPos="24.48" departSpeed="max" arrivalLane="1" arrivalPos="94.33">
        <route edges="edge-north-NW edge-west-WS edge-south-SE edge-east-EN edge-north-NW edge-west-WS gneE60 gneE60.110 gneE61 gneE62"/>
    </vehicle>
    <vehicle id="-flow-random-route-1fe20d59-d895-4e13-9b63-e54c2bfe1569--8259619052966634984-8-0.2" type="actor-impatient_car-4742460627579910770" depart="480.00" departLane="0" departPos="16.21" departSpeed="max" arrivalLane="1" arrivalPos="149.61">
        <route edges="edge-east-EN edge-north-NW edge-west-WS edge-south-SE edge-east-EN edge-north-NW edge-west-WS gneE60 gneE60.110 gneE61"/>
    </vehicle>