<?xml version="1.0" encoding="UTF-8"?>

<!-- generated on Fri Sep 18 07:55:47 2020 by Eclipse SUMO duarouter Version 1.6.0
<configuration xmlns:xsi="http://www.w3.org/2001/XMLSchema-instance" xsi:noNamespaceSchemaLocation="http://sumo.dlr.de/xsd/duarouterConfiguration.xsd">

    <input>
        <net-file value="demo4/map.net.xml"/>
        <route-files value="/tmp/tmp9g0160y0/trips.trips.xml"/>
    </input>

    <output>
        <output-file value="demo4/traffic/30_patient_car.rou.xml"/>
        <alternatives-output value="demo4/traffic/30_patient_car.rou.alt.xml"/>
    </output>

    <processing>
        <unsorted-input value="true"/>
        <repair value="true"/>
    </processing>

    <report>
        <error-log value="/tmp/smarts/_duarouter_routing/traffic/30_patient_car.log"/>
        <no-step-log value="true"/>
    </report>

    <random_number>
        <seed value="42"/>
    </random_number>

</configuration>
-->

<routes xmlns:xsi="http://www.w3.org/2001/XMLSchema-instance" xsi:noNamespaceSchemaLocation="http://sumo.dlr.de/xsd/routes_file.xsd">
    <vType id="actor-car--6989624845397650133" minGap="2.50" speedFactor="normc(0.50,0.20,0.20,2.00)" vClass="passenger" impatience="0.50" lcCooperative="0.5" lcImpatience="0" jmDriveAfterYellowTime="1.0" accel="2.6" decel="4.5" sigma="0.5"/>
    <vehicle id="-flow-random-route-07f617c1-b901-4ace-b9f8-240fbff20ba7--8522344596847385300-4-0.0" type="actor-car--6989624845397650133" depart="0.00" departLane="0" departPos="25.49" departSpeed="max" arrivalLane="1" arrivalPos="42.28">
        <route edges="gneE18 -gneE19 -gneE10 gneE20 -gneE21 gneE22 gneE20 -gneE21 gneE22 gneE7"/>
    </vehicle>
    <vehicle id="-flow-random-route-0db626af-1414-462f-b310-c12e00f3ada7--8522344596847385300-15-0.0" type="actor-car--6989624845397650133" depart="0.00" departLane="0" departPos="22.74" departSpeed="max" arrivalLane="0" arrivalPos="5.41">
        <route edges="-gneE14 gneE8 -gneE13 gneE12 -gneE11 -gneE8 -gneE9 gneE19 -gneE18 -gneE17"/>
    </vehicle>
    <vehicle id="-flow-random-route-1384e5bb-f9f3-4f41-92a6-de081c6428cb--8522344596847385300-16-0.0" type="actor-car--6989624845397650133" depart="0.00" departLane="0" departPos="13.87" departSpeed="max" arrivalLane="1" arrivalPos="53.14">
        <route edges="-gneE12 gneE13 -gneE7 gneE20 -gneE21 gneE22 gneE7 -gneE8 -gneE9 -gneE10"/>
    </vehicle>
    <vehicle id="-flow-random-route-255a40d2-9a33-490c-9cbe-dbba1f37b0a2--8522344596847385300-29-0.0" type="actor-car--6989624845397650133" depart="0.00" departLane="0" departPos="4.21" departSpeed="max" arrivalLane="0" arrivalPos="4.42">
        <route edges="-gneE14 gneE8 -gneE7 gneE20 -gneE21 gneE22 gneE10 gneE17 gneE18 -gneE19"/>
    </vehicle>
    <vehicle id="-flow-random-route-2bdf0a02-3d46-4e7b-981d-a11eb20d1934--8522344596847385300-28-0.0" type="actor-car--6989624845397650133" depart="0.00" departLane="0" departPos="4.61" departSpeed="max" arrivalLane="0" arrivalPos="6.87">
        <route edges="-gneE16 -gneE15 -gneE14 -gneE16 -gneE15 -gneE14 gneE8 gneE11 -gneE12 gneE13"/>
    </vehicle>
    <vehicle id="-flow-random-route-2d7c6eb5-aa11-4ae3-9b45-1e4dcfe9e807--8522344596847385300-9-0.0" type="actor-car--6989624845397650133" depart="0.00" departLane="0" departPos="14.29" departSpeed="max" arrivalLane="1" arrivalPos="49.48">
        <route edges="gneE18 -gneE19 gneE17 gneE18 -gneE19 gneE17 gneE18 -gneE19 -gneE10 gneE7"/>
    </vehicle>
    <vehicle id="-flow-random-route-38c67838-475f-4ee0-8144-63175a309313--8522344596847385300-17-0.0" type="actor-car--6989624845397650133" depart="0.00" departLane="0" departPos="22.37" departSpeed="max" arrivalLane="0" arrivalPos="5.92">
        <route edges="gneE11 -gneE12 gneE13 gneE11 -gneE12 gneE13 -gneE8 -gneE16 -gneE15 -gneE14"/>
    </vehicle>
    <vehicle id="-flow-random-route-3a912d38-9297-450f-b58d-a770451e3eed--8522344596847385300-2-0.0" type="actor-car--6989624845397650133" depart="0.00" departLane="0" departPos="24.43" departSpeed="max" arrivalLane="0" arrivalPos="39.17">
        <route edges="-gneE7 gneE10 gneE9 gneE14 gneE15 gneE16 gneE14 gneE15 gneE16 gneE8"/>
    </vehicle>
    <vehicle id="-flow-random-route-42c840a3-fdf0-47e9-96ca-8b966e7c0831--8522344596847385300-7-0.0" type="actor-car--6989624845397650133" depart="0.00" departLane="0" departPos="9.12" departSpeed="max" arrivalLane="0" arrivalPos="43.08">
        <route edges="gneE14 gneE15 gneE16 gneE8 -gneE7 gneE20 -gneE21"/>
    </vehicle>
    <vehicle id="-flow-random-route-4632bcae-368e-423a-b8ea-bfd2298b1039--8522344596847385300-21-0.0" type="actor-car--6989624845397650133" depart="0.00" departLane="0" departPos="7.40" departSpeed="max" arrivalLane="0" arrivalPos="20.83">
        <route edges="gneE22 gneE20 -gneE21 gneE22 gneE20 -gneE21 gneE22 gneE10 gneE19 -gneE18"/>
    </vehicle>
    <vehicle id="-flow-random-route-46a9816d-c943-4efe-a0fa-a9c816b61d93--8522344596847385300-6-0.0" type="actor-car--6989624845397650133" depart="0.00" departLane="0" departPos="1.67" departSpeed="max" arrivalLane="0" arrivalPos="21.64">
        <route edges="-gneE22 gneE21 -gneE20 gneE7 -gneE13 gneE12 -gneE11 -gneE8 -gneE16 -gneE15"/>
    </vehicle>
    <vehicle id="-flow-random-route-4d1823d5-1073-4b98-9dfc-1549dd382948--8522344596847385300-1-0.0" type="actor-car--6989624845397650133" depart="0.00" departLane="1" departPos="35.81" departSpeed="max" arrivalLane="0" arrivalPos="11.41">
        <route edges="gneE10 gneE17 gneE18 -gneE19 gneE17 gneE18 -gneE19 gneE9 gneE8 gneE11"/>
    </vehicle>
    <vehicle id="-flow-random-route-5bc51c9b-3ca5-44a8-a7fe-d94524d56032--8522344596847385300-20-0.0" type="actor-car--6989624845397650133" depart="0.00" departLane="0" departPos="30.80" departSpeed="max" arrivalLane="0" arrivalPos="3.59">
        <route edges="-gneE12 gneE13 -gneE8 -gneE16"/>
    </vehicle>
    <vehicle id="-flow-random-route-5d8f7e95-df2d-49c8-baf2-7e121ce9f04f--8522344596847385300-3-0.0" type="actor-car--6989624845397650133" depart="0.00" departLane="0" departPos="14.35" departSpeed="max" arrivalLane="0" arrivalPos="29.93">
        <route edges="-gneE19 gneE17 gneE18 -gneE19 gneE17 gneE18 -gneE19 -gneE10 -gneE22 gneE21"/>
    </vehicle>
    <vehicle id="-flow-random-route-6736a526-bf38-46ae-93e6-3445858ed8a0--8522344596847385300-18-0.0" type="actor-car--6989624845397650133" depart="0.00" departLane="0" departPos="4.73" departSpeed="max" arrivalLane="0" arrivalPos="3.66">
        <route edges="gneE20 -gneE21 gneE22 gneE20 -gneE21 gneE22 gneE10 gneE9 gneE14 gneE15"/>
    </vehicle>
    <vehicle id="-flow-random-route-6868ce83-8f95-4dab-a1b1-344568ae521e--8522344596847385300-12-0.0" type="actor-car--6989624845397650133" depart="0.00" departLane="0" departPos="12.56" departSpeed="max" arrivalLane="0" arrivalPos="22.51">
        <route edges="-gneE14 -gneE9 gneE19 -gneE18 -gneE17 -gneE10 -gneE22"/>
    </vehicle>
    <vehicle id="-flow-random-route-843ade0b-be66-4a92-8946-e48ebe7b330d--8522344596847385300-13-0.0" type="actor-car--6989624845397650133" depart="0.00" departLane="0" departPos="33.91" departSpeed="max" arrivalLane="0" arrivalPos="19.53">
        <route edges="-gneE12 gneE13 -gneE8 -gneE9 gneE17 gneE18 -gneE19"/>
    </vehicle>
    <vehicle id="-flow-random-route-95663690-b302-44a1-a0e9-d9a0d1504c17--8522344596847385300-11-0.0" type="actor-car--6989624845397650133" depart="0.00" departLane="0" departPos="13.47" departSpeed="max" arrivalLane="0" arrivalPos="53.52">
        <route edges="gneE11 -gneE12 gneE13 -gneE8 -gneE16 -gneE15 -gneE14 gneE8 -gneE7 gneE10"/>
    </vehicle>
    <vehicle id="-flow-random-route-9ef335cb-a6ec-480d-91b1-3ba1ae8609bb--8522344596847385300-8-0.0" type="actor-car--6989624845397650133" depart="0.00" departLane="0" departPos="6.17" departSpeed="max" arrivalLane="0" arrivalPos="14.09">
        <route edges="gneE11 -gneE12 gneE13 -gneE7 gneE10 gneE17 gneE18 -gneE19 gneE9 -gneE16"/>
    </vehicle>
    <vehicle id="-flow-random-route-a920d551-f92d-4fc0-8c5c-73c1b7b1b891--8522344596847385300-26-0.0" type="actor-car--6989624845397650133" depart="0.00" departLane="0" departPos="23.39" departSpeed="max" arrivalLane="1" arrivalPos="28.11">
        <route edges="-gneE12 gneE13 -gneE8 gneE14 gneE15 gneE16 gneE14 gneE15 gneE16 gneE8"/>
    </vehicle>
    <vehicle id="-flow-random-route-b6d4e30a-d923-48e7-a5c1-e2d11011764d--8522344596847385300-24-0.0" type="actor-car--6989624845397650133" depart="0.00" departLane="1" departPos="11.88" departSpeed="max" arrivalLane="0" arrivalPos="10.15">
        <route edges="-gneE9 -gneE10 gneE7 gneE11"/>
    </vehicle>
    <vehicle id="-flow-random-route-b823c08f-4bd2-4002-934a-aa12fb65c46c--8522344596847385300-27-0.0" type="actor-car--6989624845397650133" depart="0.00" departLane="0" departPos="11.93" departSpeed="max" arrivalLane="0" arrivalPos="14.79">
        <route edges="-gneE18 -gneE17 gneE19 -gneE18 -gneE17 gneE19 -gneE18 -gneE17 -gneE10 gneE20"/>
    </vehicle>
    <vehicle id="-flow-random-route-b856cdac-23ad-4e56-b287-1723b9a4029f--8522344596847385300-14-0.0" type="actor-car--6989624845397650133" depart="0.00" departLane="0" departPos="10.25" departSpeed="max" arrivalLane="0" arrivalPos="14.70">
        <route edges="-gneE13 gneE12 -gneE11 -gneE13"/>
    </vehicle>
    <vehicle id="-flow-random-route-bf95032d-0dcb-455b-a769-a8e62e3d076d--8522344596847385300-23-0.0" type="actor-car--6989624845397650133" depart="0.00" departLane="0" departPos="7.53" departSpeed="max" arrivalLane="0" arrivalPos="11.58">
        <route edges="-gneE13 gneE12 -gneE11 -gneE13 gneE12 -gneE11 -gneE7 -gneE22 gneE21 -gneE20"/>
    </vehicle>
    <vehicle id="-flow-random-route-c17edfc0-af35-4095-91a6-6e59fa7cc8c0--8522344596847385300-0-0.0" type="actor-car--6989624845397650133" depart="0.00" departLane="0" departPos="19.78" departSpeed="max" arrivalLane="1" arrivalPos="71.98">
        <route edges="-gneE9 gneE19 -gneE18 -gneE17 -gneE10 gneE20 -gneE21 gneE22 gneE10 gneE9"/>
    </vehicle>
    <vehicle id="-flow-random-route-e0e0dc67-f6b0-49b6-acf1-33a4bdb80df7--8522344596847385300-5-0.0" type="actor-car--6989624845397650133" depart="0.00" departLane="0" departPos="15.83" departSpeed="max" arrivalLane="0" arrivalPos="14.57">
        <route edges="gneE11 -gneE12 gneE13 gneE11 -gneE12 gneE13 -gneE7 -gneE22 gneE21 -gneE20"/>
    </vehicle>
    <vehicle id="-flow-random-route-effdbd15-c3ba-4b66-a0d6-e4accaedabd3--8522344596847385300-25-0.0" type="actor-car--6989624845397650133" depart="0.00" departLane="0" departPos="19.86" departSpeed="max" arrivalLane="0" arrivalPos="14.64">
        <route edges="gneE15 gneE16 -gneE9 -gneE10 -gneE22 gneE21 -gneE20 gneE7 gneE11 -gneE12"/>
    </vehicle>
    <vehicle id="-flow-random-route-f95a81fc-ae48-465c-a70e-511757d35922--8522344596847385300-22-0.0" type="actor-car--6989624845397650133" depart="0.00" departLane="0" departPos="2.64" departSpeed="max" arrivalLane="0" arrivalPos="23.70">
        <route edges="-gneE18 -gneE17 -gneE10 -gneE22 gneE21 -gneE20 gneE7 gneE11 -gneE12 gneE13"/>
    </vehicle>
    <vehicle id="-flow-random-route-fcb54b0e-57e8-4b8a-a6d2-523318348841--8522344596847385300-10-0.0" type="actor-car--6989624845397650133" depart="0.00" departLane="0" departPos="25.57" departSpeed="max" arrivalLane="1" arrivalPos="17.87">
        <route edges="gneE13 gneE11 -gneE12 gneE13 -gneE8 -gneE9 gneE19 -gneE18 -gneE17 gneE9"/>
    </vehicle>
    <vehicle id="-flow-random-route-ff84e251-357a-4a1c-8c12-dcfff7d67201--8522344596847385300-19-0.0" type="actor-car--6989624845397650133" depart="0.00" departLane="0" departPos="17.12" departSpeed="max" arrivalLane="0" arrivalPos="5.27">
        <route edges="-gneE8 gneE14 gneE15 gneE16"/>
    </vehicle>
    <vehicle id="-flow-random-route-07f617c1-b901-4ace-b9f8-240fbff20ba7--8522344596847385300-4-0.1" type="actor-car--6989624845397650133" depart="120.00" departLane="0" departPos="25.49" departSpeed="max" arrivalLane="1" arrivalPos="42.28">
        <route edges="gneE18 -gneE19 -gneE10 gneE20 -gneE21 gneE22 gneE20 -gneE21 gneE22 gneE7"/>
    </vehicle>
    <vehicle id="-flow-random-route-0db626af-1414-462f-b310-c12e00f3ada7--8522344596847385300-15-0.1" type="actor-car--6989624845397650133" depart="120.00" departLane="0" departPos="22.74" departSpeed="max" arrivalLane="0" arrivalPos="5.41">
        <route edges="-gneE14 gneE8 -gneE13 gneE12 -gneE11 -gneE8 -gneE9 gneE19 -gneE18 -gneE17"/>
    </vehicle>
    <vehicle id="-flow-random-route-1384e5bb-f9f3-4f41-92a6-de081c6428cb--8522344596847385300-16-0.1" type="actor-car--6989624845397650133" depart="120.00" departLane="0" departPos="13.87" departSpeed="max" arrivalLane="1" arrivalPos="53.14">
        <route edges="-gneE12 gneE13 -gneE7 gneE20 -gneE21 gneE22 gneE7 -gneE8 -gneE9 -gneE10"/>
    </vehicle>
    <vehicle id="-flow-random-route-255a40d2-9a33-490c-9cbe-dbba1f37b0a2--8522344596847385300-29-0.1" type="actor-car--6989624845397650133" depart="120.00" departLane="0" departPos="4.21" departSpeed="max" arrivalLane="0" arrivalPos="4.42">
        <route edges="-gneE14 gneE8 -gneE7 gneE20 -gneE21 gneE22 gneE10 gneE17 gneE18 -gneE19"/>
    </vehicle>
    <vehicle id="-flow-random-route-2bdf0a02-3d46-4e7b-981d-a11eb20d1934--8522344596847385300-28-0.1" type="actor-car--6989624845397650133" depart="120.00" departLane="0" departPos="4.61" departSpeed="max" arrivalLane="0" arrivalPos="6.87">
        <route edges="-gneE16 -gneE15 -gneE14 -gneE16 -gneE15 -gneE14 gneE8 gneE11 -gneE12 gneE13"/>
    </vehicle>
    <vehicle id="-flow-random-route-2d7c6eb5-aa11-4ae3-9b45-1e4dcfe9e807--8522344596847385300-9-0.1" type="actor-car--6989624845397650133" depart="120.00" departLane="0" departPos="14.29" departSpeed="max" arrivalLane="1" arrivalPos="49.48">
        <route edges="gneE18 -gneE19 gneE17 gneE18 -gneE19 gneE17 gneE18 -gneE19 -gneE10 gneE7"/>
    </vehicle>
    <vehicle id="-flow-random-route-38c67838-475f-4ee0-8144-63175a309313--8522344596847385300-17-0.1" type="actor-car--6989624845397650133" depart="120.00" departLane="0" departPos="22.37" departSpeed="max" arrivalLane="0" arrivalPos="5.92">
        <route edges="gneE11 -gneE12 gneE13 gneE11 -gneE12 gneE13 -gneE8 -gneE16 -gneE15 -gneE14"/>
    </vehicle>
    <vehicle id="-flow-random-route-3a912d38-9297-450f-b58d-a770451e3eed--8522344596847385300-2-0.1" type="actor-car--6989624845397650133" depart="120.00" departLane="0" departPos="24.43" departSpeed="max" arrivalLane="0" arrivalPos="39.17">
        <route edges="-gneE7 gneE10 gneE9 gneE14 gneE15 gneE16 gneE14 gneE15 gneE16 gneE8"/>
    </vehicle>
    <vehicle id="-flow-random-route-42c840a3-fdf0-47e9-96ca-8b966e7c0831--8522344596847385300-7-0.1" type="actor-car--6989624845397650133" depart="120.00" departLane="0" departPos="9.12" departSpeed="max" arrivalLane="0" arrivalPos="43.08">
        <route edges="gneE14 gneE15 gneE16 gneE8 -gneE7 gneE20 -gneE21"/>
    </vehicle>
    <vehicle id="-flow-random-route-4632bcae-368e-423a-b8ea-bfd2298b1039--8522344596847385300-21-0.1" type="actor-car--6989624845397650133" depart="120.00" departLane="0" departPos="7.40" departSpeed="max" arrivalLane="0" arrivalPos="20.83">
        <route edges="gneE22 gneE20 -gneE21 gneE22 gneE20 -gneE21 gneE22 gneE10 gneE19 -gneE18"/>
    </vehicle>
    <vehicle id="-flow-random-route-46a9816d-c943-4efe-a0fa-a9c816b61d93--8522344596847385300-6-0.1" type="actor-car--6989624845397650133" depart="120.00" departLane="0" departPos="1.67" departSpeed="max" arrivalLane="0" arrivalPos="21.64">
        <route edges="-gneE22 gneE21 -gneE20 gneE7 -gneE13 gneE12 -gneE11 -gneE8 -gneE16 -gneE15"/>
    </vehicle>
    <vehicle id="-flow-random-route-4d1823d5-1073-4b98-9dfc-1549dd382948--8522344596847385300-1-0.1" type="actor-car--6989624845397650133" depart="120.00" departLane="1" departPos="35.81" departSpeed="max" arrivalLane="0" arrivalPos="11.41">
        <route edges="gneE10 gneE17 gneE18 -gneE19 gneE17 gneE18 -gneE19 gneE9 gneE8 gneE11"/>
    </vehicle>
    <vehicle id="-flow-random-route-5bc51c9b-3ca5-44a8-a7fe-d94524d56032--8522344596847385300-20-0.1" type="actor-car--6989624845397650133" depart="120.00" departLane="0" departPos="30.80" departSpeed="max" arrivalLane="0" arrivalPos="3.59">
        <route edges="-gneE12 gneE13 -gneE8 -gneE16"/>
    </vehicle>
    <vehicle id="-flow-random-route-5d8f7e95-df2d-49c8-baf2-7e121ce9f04f--8522344596847385300-3-0.1" type="actor-car--6989624845397650133" depart="120.00" departLane="0" departPos="14.35" departSpeed="max" arrivalLane="0" arrivalPos="29.93">
        <route edges="-gneE19 gneE17 gneE18 -gneE19 gneE17 gneE18 -gneE19 -gneE10 -gneE22 gneE21"/>
    </vehicle>
    <vehicle id="-flow-random-route-6736a526-bf38-46ae-93e6-3445858ed8a0--8522344596847385300-18-0.1" type="actor-car--6989624845397650133" depart="120.00" departLane="0" departPos="4.73" departSpeed="max" arrivalLane="0" arrivalPos="3.66">
        <route edges="gneE20 -gneE21 gneE22 gneE20 -gneE21 gneE22 gneE10 gneE9 gneE14 gneE15"/>
    </vehicle>
    <vehicle id="-flow-random-route-6868ce83-8f95-4dab-a1b1-344568ae521e--8522344596847385300-12-0.1" type="actor-car--6989624845397650133" depart="120.00" departLane="0" departPos="12.56" departSpeed="max" arrivalLane="0" arrivalPos="22.51">
        <route edges="-gneE14 -gneE9 gneE19 -gneE18 -gneE17 -gneE10 -gneE22"/>
    </vehicle>
    <vehicle id="-flow-random-route-843ade0b-be66-4a92-8946-e48ebe7b330d--8522344596847385300-13-0.1" type="actor-car--6989624845397650133" depart="120.00" departLane="0" departPos="33.91" departSpeed="max" arrivalLane="0" arrivalPos="19.53">
        <route edges="-gneE12 gneE13 -gneE8 -gneE9 gneE17 gneE18 -gneE19"/>
    </vehicle>
    <vehicle id="-flow-random-route-95663690-b302-44a1-a0e9-d9a0d1504c17--8522344596847385300-11-0.1" type="actor-car--6989624845397650133" depart="120.00" departLane="0" departPos="13.47" departSpeed="max" arrivalLane="0" arrivalPos="53.52">
        <route edges="gneE11 -gneE12 gneE13 -gneE8 -gneE16 -gneE15 -gneE14 gneE8 -gneE7 gneE10"/>
    </vehicle>
    <vehicle id="-flow-random-route-9ef335cb-a6ec-480d-91b1-3ba1ae8609bb--8522344596847385300-8-0.1" type="actor-car--6989624845397650133" depart="120.00" departLane="0" departPos="6.17" departSpeed="max" arrivalLane="0" arrivalPos="14.09">
        <route edges="gneE11 -gneE12 gneE13 -gneE7 gneE10 gneE17 gneE18 -gneE19 gneE9 -gneE16"/>
    </vehicle>
    <vehicle id="-flow-random-route-a920d551-f92d-4fc0-8c5c-73c1b7b1b891--8522344596847385300-26-0.1" type="actor-car--6989624845397650133" depart="120.00" departLane="0" departPos="23.39" departSpeed="max" arrivalLane="1" arrivalPos="28.11">
        <route edges="-gneE12 gneE13 -gneE8 gneE14 gneE15 gneE16 gneE14 gneE15 gneE16 gneE8"/>
    </vehicle>
    <vehicle id="-flow-random-route-b6d4e30a-d923-48e7-a5c1-e2d11011764d--8522344596847385300-24-0.1" type="actor-car--6989624845397650133" depart="120.00" departLane="1" departPos="11.88" departSpeed="max" arrivalLane="0" arrivalPos="10.15">
        <route edges="-gneE9 -gneE10 gneE7 gneE11"/>
    </vehicle>
    <vehicle id="-flow-random-route-b823c08f-4bd2-4002-934a-aa12fb65c46c--8522344596847385300-27-0.1" type="actor-car--6989624845397650133" depart="120.00" departLane="0" departPos="11.93" departSpeed="max" arrivalLane="0" arrivalPos="14.79">
        <route edges="-gneE18 -gneE17 gneE19 -gneE18 -gneE17 gneE19 -gneE18 -gneE17 -gneE10 gneE20"/>
    </vehicle>
    <vehicle id="-flow-random-route-b856cdac-23ad-4e56-b287-1723b9a4029f--8522344596847385300-14-0.1" type="actor-car--6989624845397650133" depart="120.00" departLane="0" departPos="10.25" departSpeed="max" arrivalLane="0" arrivalPos="14.70">
        <route edges="-gneE13 gneE12 -gneE11 -gneE13"/>
    </vehicle>
    <vehicle id="-flow-random-route-bf95032d-0dcb-455b-a769-a8e62e3d076d--8522344596847385300-23-0.1" type="actor-car--6989624845397650133" depart="120.00" departLane="0" departPos="7.53" departSpeed="max" arrivalLane="0" arrivalPos="11.58">
        <route edges="-gneE13 gneE12 -gneE11 -gneE13 gneE12 -gneE11 -gneE7 -gneE22 gneE21 -gneE20"/>
    </vehicle>
    <vehicle id="-flow-random-route-c17edfc0-af35-4095-91a6-6e59fa7cc8c0--8522344596847385300-0-0.1" type="actor-car--6989624845397650133" depart="120.00" departLane="0" departPos="19.78" departSpeed="max" arrivalLane="1" arrivalPos="71.98">
        <route edges="-gneE9 gneE19 -gneE18 -gneE17 -gneE10 gneE20 -gneE21 gneE22 gneE10 gneE9"/>
    </vehicle>
    <vehicle id="-flow-random-route-e0e0dc67-f6b0-49b6-acf1-33a4bdb80df7--8522344596847385300-5-0.1" type="actor-car--6989624845397650133" depart="120.00" departLane="0" departPos="15.83" departSpeed="max" arrivalLane="0" arrivalPos="14.57">
        <route edges="gneE11 -gneE12 gneE13 gneE11 -gneE12 gneE13 -gneE7 -gneE22 gneE21 -gneE20"/>
    </vehicle>
    <vehicle id="-flow-random-route-effdbd15-c3ba-4b66-a0d6-e4accaedabd3--8522344596847385300-25-0.1" type="actor-car--6989624845397650133" depart="120.00" departLane="0" departPos="19.86" departSpeed="max" arrivalLane="0" arrivalPos="14.64">
        <route edges="gneE15 gneE16 -gneE9 -gneE10 -gneE22 gneE21 -gneE20 gneE7 gneE11 -gneE12"/>
    </vehicle>
    <vehicle id="-flow-random-route-f95a81fc-ae48-465c-a70e-511757d35922--8522344596847385300-22-0.1" type="actor-car--6989624845397650133" depart="120.00" departLane="0" departPos="2.64" departSpeed="max" arrivalLane="0" arrivalPos="23.70">
        <route edges="-gneE18 -gneE17 -gneE10 -gneE22 gneE21 -gneE20 gneE7 gneE11 -gneE12 gneE13"/>
    </vehicle>
    <vehicle id="-flow-random-route-fcb54b0e-57e8-4b8a-a6d2-523318348841--8522344596847385300-10-0.1" type="actor-car--6989624845397650133" depart="120.00" departLane="0" departPos="25.57" departSpeed="max" arrivalLane="1" arrivalPos="17.87">
        <route edges="gneE13 gneE11 -gneE12 gneE13 -gneE8 -gneE9 gneE19 -gneE18 -gneE17 gneE9"/>
    </vehicle>
    <vehicle id="-flow-random-route-ff84e251-357a-4a1c-8c12-dcfff7d67201--8522344596847385300-19-0.1" type="actor-car--6989624845397650133" depart="120.00" departLane="0" departPos="17.12" departSpeed="max" arrivalLane="0" arrivalPos="5.27">
        <route edges="-gneE8 gneE14 gneE15 gneE16"/>
    </vehicle>
    <vehicle id="-flow-random-route-07f617c1-b901-4ace-b9f8-240fbff20ba7--8522344596847385300-4-0.2" type="actor-car--6989624845397650133" depart="240.00" departLane="0" departPos="25.49" departSpeed="max" arrivalLane="1" arrivalPos="42.28">
        <route edges="gneE18 -gneE19 -gneE10 gneE20 -gneE21 gneE22 gneE20 -gneE21 gneE22 gneE7"/>
    </vehicle>
    <vehicle id="-flow-random-route-0db626af-1414-462f-b310-c12e00f3ada7--8522344596847385300-15-0.2" type="actor-car--6989624845397650133" depart="240.00" departLane="0" departPos="22.74" departSpeed="max" arrivalLane="0" arrivalPos="5.41">
        <route edges="-gneE14 gneE8 -gneE13 gneE12 -gneE11 -gneE8 -gneE9 gneE19 -gneE18 -gneE17"/>
    </vehicle>
    <vehicle id="-flow-random-route-1384e5bb-f9f3-4f41-92a6-de081c6428cb--8522344596847385300-16-0.2" type="actor-car--6989624845397650133" depart="240.00" departLane="0" departPos="13.87" departSpeed="max" arrivalLane="1" arrivalPos="53.14">
        <route edges="-gneE12 gneE13 -gneE7 gneE20 -gneE21 gneE22 gneE7 -gneE8 -gneE9 -gneE10"/>
    </vehicle>
    <vehicle id="-flow-random-route-255a40d2-9a33-490c-9cbe-dbba1f37b0a2--8522344596847385300-29-0.2" type="actor-car--6989624845397650133" depart="240.00" departLane="0" departPos="4.21" departSpeed="max" arrivalLane="0" arrivalPos="4.42">
        <route edges="-gneE14 gneE8 -gneE7 gneE20 -gneE21 gneE22 gneE10 gneE17 gneE18 -gneE19"/>
    </vehicle>
    <vehicle id="-flow-random-route-2bdf0a02-3d46-4e7b-981d-a11eb20d1934--8522344596847385300-28-0.2" type="actor-car--6989624845397650133" depart="240.00" departLane="0" departPos="4.61" departSpeed="max" arrivalLane="0" arrivalPos="6.87">
        <route edges="-gneE16 -gneE15 -gneE14 -gneE16 -gneE15 -gneE14 gneE8 gneE11 -gneE12 gneE13"/>
    </vehicle>
    <vehicle id="-flow-random-route-2d7c6eb5-aa11-4ae3-9b45-1e4dcfe9e807--8522344596847385300-9-0.2" type="actor-car--6989624845397650133" depart="240.00" departLane="0" departPos="14.29" departSpeed="max" arrivalLane="1" arrivalPos="49.48">
        <route edges="gneE18 -gneE19 gneE17 gneE18 -gneE19 gneE17 gneE18 -gneE19 -gneE10 gneE7"/>
    </vehicle>
    <vehicle id="-flow-random-route-38c67838-475f-4ee0-8144-63175a309313--8522344596847385300-17-0.2" type="actor-car--6989624845397650133" depart="240.00" departLane="0" departPos="22.37" departSpeed="max" arrivalLane="0" arrivalPos="5.92">
        <route edges="gneE11 -gneE12 gneE13 gneE11 -gneE12 gneE13 -gneE8 -gneE16 -gneE15 -gneE14"/>
    </vehicle>
    <vehicle id="-flow-random-route-3a912d38-9297-450f-b58d-a770451e3eed--8522344596847385300-2-0.2" type="actor-car--6989624845397650133" depart="240.00" departLane="0" departPos="24.43" departSpeed="max" arrivalLane="0" arrivalPos="39.17">
        <route edges="-gneE7 gneE10 gneE9 gneE14 gneE15 gneE16 gneE14 gneE15 gneE16 gneE8"/>
    </vehicle>
    <vehicle id="-flow-random-route-42c840a3-fdf0-47e9-96ca-8b966e7c0831--8522344596847385300-7-0.2" type="actor-car--6989624845397650133" depart="240.00" departLane="0" departPos="9.12" departSpeed="max" arrivalLane="0" arrivalPos="43.08">
        <route edges="gneE14 gneE15 gneE16 gneE8 -gneE7 gneE20 -gneE21"/>
    </vehicle>
    <vehicle id="-flow-random-route-4632bcae-368e-423a-b8ea-bfd2298b1039--8522344596847385300-21-0.2" type="actor-car--6989624845397650133" depart="240.00" departLane="0" departPos="7.40" departSpeed="max" arrivalLane="0" arrivalPos="20.83">
        <route edges="gneE22 gneE20 -gneE21 gneE22 gneE20 -gneE21 gneE22 gneE10 gneE19 -gneE18"/>
    </vehicle>
    <vehicle id="-flow-random-route-46a9816d-c943-4efe-a0fa-a9c816b61d93--8522344596847385300-6-0.2" type="actor-car--6989624845397650133" depart="240.00" departLane="0" departPos="1.67" departSpeed="max" arrivalLane="0" arrivalPos="21.64">
        <route edges="-gneE22 gneE21 -gneE20 gneE7 -gneE13 gneE12 -gneE11 -gneE8 -gneE16 -gneE15"/>
    </vehicle>
    <vehicle id="-flow-random-route-4d1823d5-1073-4b98-9dfc-1549dd382948--8522344596847385300-1-0.2" type="actor-car--6989624845397650133" depart="240.00" departLane="1" departPos="35.81" departSpeed="max" arrivalLane="0" arrivalPos="11.41">
        <route edges="gneE10 gneE17 gneE18 -gneE19 gneE17 gneE18 -gneE19 gneE9 gneE8 gneE11"/>
    </vehicle>
    <vehicle id="-flow-random-route-5bc51c9b-3ca5-44a8-a7fe-d94524d56032--8522344596847385300-20-0.2" type="actor-car--6989624845397650133" depart="240.00" departLane="0" departPos="30.80" departSpeed="max" arrivalLane="0" arrivalPos="3.59">
        <route edges="-gneE12 gneE13 -gneE8 -gneE16"/>
    </vehicle>
    <vehicle id="-flow-random-route-5d8f7e95-df2d-49c8-baf2-7e121ce9f04f--8522344596847385300-3-0.2" type="actor-car--6989624845397650133" depart="240.00" departLane="0" departPos="14.35" departSpeed="max" arrivalLane="0" arrivalPos="29.93">
        <route edges="-gneE19 gneE17 gneE18 -gneE19 gneE17 gneE18 -gneE19 -gneE10 -gneE22 gneE21"/>
    </vehicle>
    <vehicle id="-flow-random-route-6736a526-bf38-46ae-93e6-3445858ed8a0--8522344596847385300-18-0.2" type="actor-car--6989624845397650133" depart="240.00" departLane="0" departPos="4.73" departSpeed="max" arrivalLane="0" arrivalPos="3.66">
        <route edges="gneE20 -gneE21 gneE22 gneE20 -gneE21 gneE22 gneE10 gneE9 gneE14 gneE15"/>
    </vehicle>
    <vehicle id="-flow-random-route-6868ce83-8f95-4dab-a1b1-344568ae521e--8522344596847385300-12-0.2" type="actor-car--6989624845397650133" depart="240.00" departLane="0" departPos="12.56" departSpeed="max" arrivalLane="0" arrivalPos="22.51">
        <route edges="-gneE14 -gneE9 gneE19 -gneE18 -gneE17 -gneE10 -gneE22"/>
    </vehicle>
    <vehicle id="-flow-random-route-843ade0b-be66-4a92-8946-e48ebe7b330d--8522344596847385300-13-0.2" type="actor-car--6989624845397650133" depart="240.00" departLane="0" departPos="33.91" departSpeed="max" arrivalLane="0" arrivalPos="19.53">
        <route edges="-gneE12 gneE13 -gneE8 -gneE9 gneE17 gneE18 -gneE19"/>
    </vehicle>
    <vehicle id="-flow-random-route-95663690-b302-44a1-a0e9-d9a0d1504c17--8522344596847385300-11-0.2" type="actor-car--6989624845397650133" depart="240.00" departLane="0" departPos="13.47" departSpeed="max" arrivalLane="0" arrivalPos="53.52">
        <route edges="gneE11 -gneE12 gneE13 -gneE8 -gneE16 -gneE15 -gneE14 gneE8 -gneE7 gneE10"/>
    </vehicle>
    <vehicle id="-flow-random-route-9ef335cb-a6ec-480d-91b1-3ba1ae8609bb--8522344596847385300-8-0.2" type="actor-car--6989624845397650133" depart="240.00" departLane="0" departPos="6.17" departSpeed="max" arrivalLane="0" arrivalPos="14.09">
        <route edges="gneE11 -gneE12 gneE13 -gneE7 gneE10 gneE17 gneE18 -gneE19 gneE9 -gneE16"/>
    </vehicle>
    <vehicle id="-flow-random-route-a920d551-f92d-4fc0-8c5c-73c1b7b1b891--8522344596847385300-26-0.2" type="actor-car--6989624845397650133" depart="240.00" departLane="0" departPos="23.39" departSpeed="max" arrivalLane="1" arrivalPos="28.11">
        <route edges="-gneE12 gneE13 -gneE8 gneE14 gneE15 gneE16 gneE14 gneE15 gneE16 gneE8"/>
    </vehicle>
    <vehicle id="-flow-random-route-b6d4e30a-d923-48e7-a5c1-e2d11011764d--8522344596847385300-24-0.2" type="actor-car--6989624845397650133" depart="240.00" departLane="1" departPos="11.88" departSpeed="max" arrivalLane="0" arrivalPos="10.15">
        <route edges="-gneE9 -gneE10 gneE7 gneE11"/>
    </vehicle>
    <vehicle id="-flow-random-route-b823c08f-4bd2-4002-934a-aa12fb65c46c--8522344596847385300-27-0.2" type="actor-car--6989624845397650133" depart="240.00" departLane="0" departPos="11.93" departSpeed="max" arrivalLane="0" arrivalPos="14.79">
        <route edges="-gneE18 -gneE17 gneE19 -gneE18 -gneE17 gneE19 -gneE18 -gneE17 -gneE10 gneE20"/>
    </vehicle>
    <vehicle id="-flow-random-route-b856cdac-23ad-4e56-b287-1723b9a4029f--8522344596847385300-14-0.2" type="actor-car--6989624845397650133" depart="240.00" departLane="0" departPos="10.25" departSpeed="max" arrivalLane="0" arrivalPos="14.70">