<?xml version="1.0" encoding="UTF-8"?>

<!-- generated on 2020年08月10日 星期一 19时35分46秒 by Eclipse SUMO netedit Version 1.6.0
<configuration xmlns:xsi="http://www.w3.org/2001/XMLSchema-instance" xsi:noNamespaceSchemaLocation="http://sumo.dlr.de/xsd/netconvertConfiguration.xsd">

    <input>
        <sumo-net-file value="/home/illion/workspace/projects/ming/SMARTS/dai/track1/dataset_evaluation/merge_loop/merge_a/map.net.xml"/>
    </input>

    <output>
        <output-file value="/home/illion/workspace/projects/ming/SMARTS/dai/track1/dataset_evaluation/merge_loop/merge_a2/map.net.xml"/>
    </output>

    <processing>
        <geometry.min-radius.fix.railways value="false"/>
        <geometry.max-grade.fix value="false"/>
        <offset.disable-normalization value="true"/>
        <lefthand value="false"/>
    </processing>

    <junctions>
        <no-turnarounds value="true"/>
        <junctions.corner-detail value="5"/>
        <junctions.limit-turn-speed value="5.5"/>
        <rectangular-lane-cut value="false"/>
    </junctions>

    <pedestrian>
        <walkingareas value="false"/>
    </pedestrian>

    <report>
        <aggregate-warnings value="5"/>
    </report>

</configuration>
-->

<net version="1.6" junctionCornerDetail="5" limitTurnSpeed="5.50" xmlns:xsi="http://www.w3.org/2001/XMLSchema-instance" xsi:noNamespaceSchemaLocation="http://sumo.dlr.de/xsd/net_file.xsd">

    <location netOffset="0.00,0.00" convBoundary="-157.23,-81.52,176.27,99.46" origBoundary="-10000000000.00,-10000000000.00,10000000000.00,10000000000.00" projParameter="!"/>

    <edge id=":gneJ10_0" function="internal">
        <lane id=":gneJ10_0_0" index="0" speed="13.89" length="1.17" shape="-150.69,-74.79 -150.85,-74.72 -150.95,-74.66 -151.05,-74.59 -151.17,-74.47"/>
        <lane id=":gneJ10_0_1" index="1" speed="9.91" length="1.17" shape="-151.94,-77.73 -152.42,-77.52 -152.74,-77.35 -153.02,-77.13 -153.40,-76.77"/>
    </edge>
    <edge id=":gneJ11_0" function="internal">
        <lane id=":gneJ11_0_0" index="0" speed="13.89" length="1.76" shape="-148.43,94.85 -148.31,95.07 -148.20,95.22 -148.06,95.33 -147.84,95.46"/>
        <lane id=":gneJ11_0_1" index="1" speed="7.47" length="1.76" shape="-151.25,96.36 -150.87,97.04 -150.54,97.47 -150.13,97.81 -149.46,98.22"/>
    </edge>
    <edge id=":gneJ12_0" function="internal">
        <lane id=":gneJ12_0_0" index="0" speed="6.48" length="9.03" shape="-56.32,-78.24 -58.77,-77.86 -60.51,-76.79 -61.52,-75.02 -61.81,-72.56"/>
    </edge>
    <edge id=":gneJ12_1" function="internal">
        <lane id=":gneJ12_1_0" index="0" speed="7.30" length="11.75" shape="-56.32,-78.24 -60.17,-77.84 -62.91,-76.75 -64.52,-74.97 -65.01,-72.49"/>
    </edge>
    <edge id=":gneJ12_2" function="internal">
        <lane id=":gneJ12_2_0" index="0" speed="13.89" length="14.41" shape="-56.32,-78.24 -70.73,-78.06"/>
        <lane id=":gneJ12_2_1" index="1" speed="13.89" length="14.41" shape="-56.36,-81.44 -70.77,-81.26"/>
    </edge>
    <edge id=":gneJ18_0" function="internal">
        <lane id=":gneJ18_0_0" index="0" speed="6.95" length="8.04" shape="48.59,62.79 50.48,62.44 52.03,61.49 53.25,59.94 54.12,57.79"/>
    </edge>
    <edge id=":gneJ18_1" function="internal">
        <lane id=":gneJ18_1_0" index="0" speed="13.89" length="9.21" shape="48.59,62.79 57.81,62.62"/>
        <lane id=":gneJ18_1_1" index="1" speed="13.89" length="9.21" shape="48.66,65.98 57.85,65.82"/>
    </edge>
    <edge id=":gneJ19_0" function="internal">
        <lane id=":gneJ19_0_0" index="0" speed="13.89" length="12.26" shape="99.81,-79.86 87.60,-79.83"/>
        <lane id=":gneJ19_0_1" index="1" speed="13.89" length="12.26" shape="99.86,-83.06 87.56,-83.03"/>
    </edge>
    <edge id=":gneJ19_2" function="internal">
        <lane id=":gneJ19_2_0" index="0" speed="5.97" length="9.09" shape="92.05,-73.99 92.41,-76.57 91.79,-78.40 90.18,-79.49 87.60,-79.83"/>
    </edge>
    <edge id=":gneJ2_0" function="internal">
        <lane id=":gneJ2_0_0" index="0" speed="13.89" length="11.17" shape="-6.75,60.87 -3.85,62.09 -1.85,63.03 0.20,63.62 3.29,63.77"/>
        <lane id=":gneJ2_0_1" index="1" speed="13.89" length="11.17" shape="-7.84,63.88 -4.61,65.22 -2.37,66.22 -0.08,66.82 3.36,66.97"/>
    </edge>
    <edge id=":gneJ2_2" function="internal">
        <lane id=":gneJ2_2_0" index="0" speed="13.89" length="11.18" shape="-7.60,68.00 -4.52,66.25 -2.39,64.95 -0.14,64.12 3.29,63.77"/>
        <lane id=":gneJ2_2_1" index="1" speed="13.89" length="11.18" shape="-6.17,70.86 -3.46,69.29 -1.61,68.09 0.35,67.30 3.36,66.97"/>
    </edge>
    <edge id=":gneJ3_0" function="internal">
        <lane id=":gneJ3_0_0" index="0" speed="13.89" length="1.70" shape="171.61,58.24 171.83,58.11 171.96,58.00 172.07,57.86 172.19,57.65"/>
        <lane id=":gneJ3_0_1" index="1" speed="7.57" length="1.70" shape="173.24,61.00 173.88,60.60 174.29,60.27 174.61,59.86 174.99,59.21"/>
    </edge>
    <edge id=":gneJ4_0" function="internal">
        <lane id=":gneJ4_0_0" index="0" speed="13.89" length="1.45" shape="-64.92,96.60 -64.70,96.60 -64.56,96.57 -64.42,96.53 -64.22,96.43"/>
        <lane id=":gneJ4_0_1" index="1" speed="8.25" length="1.45" shape="-64.87,99.80 -64.22,99.78 -63.78,99.72 -63.37,99.57 -62.79,99.29"/>
    </edge>
    <edge id=":gneJ5_0" function="internal">
        <lane id=":gneJ5_0_0" index="0" speed="3.97" length="1.93" shape="-59.19,40.78 -59.12,41.29 -58.91,41.70 -58.59,42.02 -58.14,42.25"/>
    </edge>
    <edge id=":gneJ5_1" function="internal">
        <lane id=":gneJ5_1_0" index="0" speed="6.19" length="5.80" shape="-62.39,40.86 -62.16,42.36 -61.56,43.60 -60.58,44.57 -59.23,45.26"/>
    </edge>
    <edge id=":gneJ8_0" function="internal">
        <lane id=":gneJ8_0_0" index="0" speed="4.28" length="2.39" shape="172.18,-75.77 172.03,-76.08 171.88,-76.28 171.68,-76.42 171.36,-76.57"/>
        <lane id=":gneJ8_0_1" index="1" speed="6.79" length="2.39" shape="175.10,-77.09 174.63,-78.03 174.19,-78.63 173.59,-79.06 172.64,-79.51"/>
    </edge>

    <edge id="gneE1" from="gneJ2" to="gneJ18" priority="-1" spreadType="center">
        <lane id="gneE1_0" index="0" speed="13.89" length="45.31" shape="3.29,63.77 48.59,62.79"/>
        <lane id="gneE1_1" index="1" speed="13.89" length="45.31" shape="3.36,66.97 48.66,65.98"/>
    </edge>
    <edge id="gneE1.12" from="gneJ18" to="gneJ3" priority="-1" spreadType="center" shape="53.92,64.27 166.43,62.87 169.25,61.50 173.17,59.18">
        <lane id="gneE1.12_0" index="0" speed="13.89" length="115.44" shape="57.81,62.62 166.05,61.27 168.49,60.09 171.61,58.24"/>
        <lane id="gneE1.12_1" index="1" speed="13.89" length="115.44" shape="57.85,65.82 166.81,64.47 170.01,62.91 173.24,61.00"/>
    </edge>
    <edge id="gneE10" from="gneJ12" to="gneJ5" priority="-1" spreadType="center">
        <lane id="gneE10_0" index="0" speed="13.89" length="113.37" shape="-61.81,-72.56 -59.19,40.78"/>
        <lane id="gneE10_1" index="1" speed="13.89" length="113.37" shape="-65.01,-72.49 -62.39,40.86"/>
    </edge>
    <edge id="gneE16" from="gneJ18" to="gneJ19" priority="-1">
        <lane id="gneE16_0" index="0" speed="13.89" length="137.12" shape="54.12,57.79 92.05,-73.99"/>
    </edge>
    <edge id="gneE2" from="gneJ4" to="gneJ2" priority="-1" spreadType="center">
        <lane id="gneE2_0" index="0" speed="13.89" length="63.36" shape="-64.22,96.43 -7.60,68.00"/>
        <lane id="gneE2_1" index="1" speed="13.89" length="63.36" shape="-62.79,99.29 -6.17,70.86"/>
    </edge>
    <edge id="gneE3" from="gneJ5" to="gneJ2" priority="-1" spreadType="center">
        <lane id="gneE3_0" index="0" speed="13.89" length="54.65" shape="-58.14,42.25 -6.75,60.87"/>
        <lane id="gneE3_1" index="1" speed="13.89" length="54.65" shape="-59.23,45.26 -7.84,63.88"/>
    </edge>
    <edge id="gneE5" from="gneJ3" to="gneJ8" priority="-1" spreadType="center" shape="173.17,59.18 175.72,54.61 176.27,51.59 175.81,-69.80 175.23,-72.93 173.13,-77.55">
        <lane id="gneE5_0" index="0" speed="13.89" length="135.86" shape="172.19,57.65 174.19,54.06 174.67,51.45 174.21,-69.65 173.69,-72.45 172.18,-75.77"/>
        <lane id="gneE5_1" index="1" speed="13.89" length="135.86" shape="174.99,59.21 177.25,55.16 177.87,51.73 177.41,-69.95 176.77,-73.41 175.10,-77.09"/>
    </edge>
    <edge id="gneE7" from="gneJ8" to="gneJ19" priority="-1" spreadType="center" shape="173.13,-77.55 168.49,-79.57 165.35,-80.45 95.88,-81.52">
        <lane id="gneE7_0" index="0" speed="13.89" length="72.61" shape="171.36,-76.57 167.95,-78.06 165.12,-78.85 99.81,-79.86"/>
        <lane id="gneE7_1" index="1" speed="13.89" length="72.61" shape="172.64,-79.51 169.03,-81.08 165.58,-82.05 99.86,-83.06"/>
    </edge>
    <edge id="gneE7.117" from="gneJ19" to="gneJ12" priority="-1" spreadType="center">
        <lane id="gneE7.117_0" index="0" speed="13.89" length="143.93" shape="87.60,-79.83 -56.32,-78.24"/>
        <lane id="gneE7.117_1" index="1" speed="13.89" length="143.93" shape="87.56,-83.03 -56.36,-81.44"/>
    </edge>
    <edge id="gneE7.141" from="gneJ12" to="gneJ10" priority="-1" spreadType="center" shape="-63.58,-79.76 -143.35,-78.61 -146.95,-78.12 -151.86,-76.03">
        <lane id="gneE7.141_0" index="0" speed="13.89" length="80.98" shape="-70.73,-78.06 -143.23,-77.01 -146.52,-76.56 -150.69,-74.79"/>
        <lane id="gneE7.141_1" index="1" speed="13.89" length="80.98" shape="-70.77,-81.26 -143.47,-80.21 -147.38,-79.68 -151.94,-77.73"/>
    </edge>
    <edge id="gneE8" from="gneJ10" to="gneJ11" priority="-1" spreadType="center" shape="-151.86,-76.03 -156.12,-71.92 -157.23,-68.32 -152.55,88.82 -151.93,91.73 -149.42,96.39">
        <lane id="gneE8_0" index="0" speed="13.89" length="173.68" shape="-151.17,-74.47 -154.71,-71.05 -155.62,-68.10 -150.96,88.63 -150.41,91.17 -148.43,94.85"/>
        <lane id="gneE8_1" index="1" speed="13.89" length="173.68" shape="-153.40,-76.77 -157.53,-72.79 -158.84,-68.54 -154.14,89.01 -153.45,92.29 -151.25,96.36"/>
    </edge>
    <edge id="gneE9" from="gneJ11" to="gneJ4" priority="-1" spreadType="center" shape="-149.42,96.39 -145.50,98.70 -142.59,99.46 -64.16,98.19">
        <lane id="gneE9_0" index="0" speed="13.89" length="84.37" shape="-147.84,95.46 -144.88,97.21 -142.40,97.86 -64.92,96.60"/>
        <lane id="gneE9_1" index="1" speed="13.89" length="84.37" shape="-149.46,98.22 -146.12,100.19 -142.78,101.06 -64.87,99.80"/>
    </edge>

    <junction id="gneJ10" type="priority" x="-151.86" y="-76.03" incLanes="gneE7.141_0 gneE7.141_1" intLanes=":gneJ10_0_0 :gneJ10_0_1" shape="-150.06,-73.32 -152.57,-79.21 -153.36,-78.85 -153.63,-78.70 -153.87,-78.51 -154.15,-78.27 -154.51,-77.92">
        <request index="0" response="00" foes="00" cont="0"/>
        <request index="1" response="00" foes="00" cont="0"/>
    </junction>
    <junction id="gneJ11" type="priority" x="-149.42" y="96.39" incLanes="gneE8_0 gneE8_1" intLanes=":gneJ11_0_0 :gneJ11_0_1" shape="-150.28,99.60 -147.03,94.09 -152.66,97.12 -152.01,98.24 -151.72,98.60 -151.37,98.91 -150.91,99.22">
        <request index="0" response="00" foes="00" cont="0"/>
        <request index="1" response="00" foes="00" cont="0"/>
    </junction>
    <junction id="gneJ12" type="priority" x="-63.58" y="-79.76" incLanes="gneE7.117_0 gneE7.117_1" intLanes=":gneJ12_0_0 :gneJ12_1_0 :gneJ12_2_0 :gneJ12_2_1" shape="-66.61,-72.45 -60.21,-72.60 -59.82,-74.82 -59.28,-75.61 -58.52,-76.17 -57.53,-76.52 -56.31,-76.64 -56.38,-83.04 -70.80,-82.86 -70.71,-76.46 -68.47,-76.04 -67.68,-75.48 -67.11,-74.70 -66.75,-73.69">
        <request index="0" response="0000" foes="0000" cont="0"/>
        <request index="1" response="0000" foes="0000" cont="0"/>
        <request index="2" response="0000" foes="0000" cont="0"/>
        <request index="3" response="0000" foes="0000" cont="0"/>
    </junction>
    <junction id="gneJ18" type="priority" x="53.92" y="64.27" incLanes="gneE1_0 gneE1_1" intLanes=":gneJ18_0_0 :gneJ18_1_0 :gneJ18_1_1" shape="57.87,67.42 57.79,61.02 56.24,60.73 55.78,60.34 55.53,59.80 55.49,59.09 55.66,58.23 52.58,57.34 51.65,59.45 51.03,60.19 50.31,60.73 49.48,61.06 48.55,61.19 48.69,67.58">
        <request index="0" response="000" foes="000" cont="0"/>
        <request index="1" response="000" foes="000" cont="0"/>
        <request index="2" response="000" foes="000" cont="0"/>
    </junction>
    <junction id="gneJ19" type="priority" x="95.88" y="-81.52" incLanes="gneE7_0 gneE7_1 gneE16_0" intLanes=":gneJ19_0_0 :gneJ19_0_1 :gneJ19_2_0" shape="99.79,-78.26 99.89,-84.66 87.55,-84.63 87.62,-78.23 89.71,-77.83 90.34,-77.30 90.68,-76.56 90.74,-75.60 90.51,-74.43 93.58,-73.54 94.89,-76.20 95.82,-77.12 96.95,-77.77 98.28,-78.15">
        <request index="0" response="000" foes="100" cont="0"/>
        <request index="1" response="000" foes="000" cont="0"/>
        <request index="2" response="001" foes="001" cont="0"/>
    </junction>
    <junction id="gneJ2" type="priority" x="1.10" y="65.42" incLanes="gneE3_0 gneE3_1 gneE2_0 gneE2_1" intLanes=":gneJ2_0_0 :gneJ2_0_1 :gneJ2_2_0 :gneJ2_2_1" shape="3.39,68.57 3.25,62.17 1.16,62.12 -0.36,61.87 -1.59,61.44 -2.79,60.87 -4.24,60.17 -6.21,59.37 -8.39,65.38 -7.75,65.74 -7.67,65.94 -7.73,66.14 -7.95,66.35 -8.32,66.57 -5.45,72.29 -3.64,71.27 -2.32,70.39 -1.22,69.66 -0.08,69.10 1.37,68.73">
        <request index="0" response="0100" foes="0100" cont="0"/>
        <request index="1" response="1100" foes="1100" cont="0"/>
        <request index="2" response="0000" foes="0011" cont="0"/>
        <request index="3" response="0000" foes="0010" cont="0"/>
    </junction>
    <junction id="gneJ3" type="priority" x="173.17" y="59.18" incLanes="gneE1.12_0 gneE1.12_1" intLanes=":gneJ3_0_0 :gneJ3_0_1" shape="176.39,59.98 170.80,56.87 174.06,62.37 175.12,61.70 175.45,61.41 175.74,61.06 176.03,60.61">
        <request index="0" response="00" foes="00" cont="0"/>
        <request index="1" response="00" foes="00" cont="0"/>
    </junction>
    <junction id="gneJ4" type="priority" x="-64.16" y="98.19" incLanes="gneE9_0 gneE9_1" intLanes=":gneJ4_0_0 :gneJ4_0_1" shape="-62.07,100.72 -64.94,95.00 -64.84,101.40 -63.77,101.36 -63.40,101.29 -63.04,101.18 -62.62,100.99">
        <request index="0" response="00" foes="00" cont="0"/>
        <request index="1" response="00" foes="00" cont="0"/>
    </junction>
    <junction id="gneJ5" type="priority" x="-60.74" y="43.01" incLanes="gneE10_0 gneE10_1" intLanes=":gneJ5_0_0 :gneJ5_1_0" shape="-59.77,46.76 -57.59,40.75 -63.99,40.90 -63.48,43.49 -62.88,44.55 -62.07,45.45 -61.03,46.19">
        <request index="0" response="00" foes="00" cont="0"/>
        <request index="1" response="00" foes="00" cont="0"/>
    </junction>
    <junction id="gneJ8" type="priority" x="173.13" y="-77.55" incLanes="gneE5_0 gneE5_1" intLanes=":gneJ8_0_0 :gneJ8_0_1" shape="170.73,-75.11 176.55,-77.76 175.75,-79.31 175.35,-79.80 174.85,-80.20 174.19,-80.56 173.28,-80.97">
        <request index="0" response="00" foes="00" cont="0"/>
        <request index="1" response="00" foes="00" cont="0"/>
    </junction>

    <connection from="gneE1" to="gneE16" fromLane="0" toLane="0" via=":gneJ18_0_0" dir="r" state="M"/>
    <connection from="gneE1" to="gneE1.12" fromLane="0" toLane="0" via=":gneJ18_1_0" dir="s" state="M"/>
    <connection from="gneE1" to="gneE1.12" fromLane="1" toLane="1" via=":gneJ18_1_1" dir="s" state="M"/>
    <connection from="gneE1.12" to="gneE5" fromLane="0" toLane="0" via=":gneJ3_0_0" dir="s" state="M"/>
    <connection from="gneE1.12" to="gneE5" fromLane="1" toLane="1" via=":gneJ3_0_1" dir="s" state="M"/>
    <connection from="gneE10" to="gneE3" fromLane="0" toLane="0" via=":gneJ5_0_0" dir="r" state="M"/>
    <connection from="gneE10" to="gneE3" fromLane="1" toLane="1" via=":gneJ5_1_0" dir="r" state="M"/>
    <connection from="gneE16" to="gneE7.117" fromLane="0" toLane="0" via=":gneJ19_2_0" dir="r" state="m"/>
    <connection from="gneE2" to="gneE1" fromLane="0" toLane="0" via=":gneJ2_2_0" dir="s" state="M"/>
    <connection from="gneE2" to="gneE1" fromLane="1" toLane="1" via=":gneJ2_2_1" dir="s" state="M"/>
    <connection from="gneE3" to="gneE1" fromLane="0" toLane="0" via=":gneJ2_0_0" dir="s" state="m"/>
    <connection from="gneE3" to="gneE1" fromLane="1" toLane="1" via=":gneJ2_0_1" dir="s" state="m"/>
    <connection from="gneE5" to="gneE7" fromLane="0" toLane="0" via=":gneJ8_0_0" dir="s" state="M"/>
    <connection from="gneE5" to="gneE7" fromLane="1" toLane="1" via=":gneJ8_0_1" dir="s" state="M"/>
    <connection from="gneE7" to="gneE7.117" fromLane="0" toLane="0" via=":gneJ19_0_0" dir="s" state="M"/>
    <connection from="gneE7" to="gneE7.117" fromLane="1" toLane="1" via=":gneJ19_0_1" dir="s" state="M"/>
    <connection from="gneE7.117" to="gneE10" fromLane="0" toLane="0" via=":gneJ12_0_0" dir="r" state="M"/>
    <connection from="gneE7.117" to="gneE10" fromLane="0" toLane="1" via=":gneJ12_1_0" dir="r" state="M"/>
    <connection from="gneE7.117" to="gneE7.141" fromLane="0" toLane="0" via=":gneJ12_2_0" dir="s" state="M"/>
    <connection from="gneE7.117" to="gneE7.141" fromLane="1" toLane="1" via=":gneJ12_2_1" dir="s" state="M"/>
    <connection from="gneE7.141" to="gneE8" fromLane="0" toLane="0" via=":gneJ10_0_0" dir="s" state="M"/>
    <connection from="gneE7.141" to="gneE8" fromLane="1" toLane="1" via=":gneJ10_0_1" dir="s" state="M"/>
    <connection from="gneE8" to="gneE9" fromLane="0" toLane="0" via=":gneJ11_0_0" dir="s" state="M"/>
    <connection from="gneE8" to="gneE9" fromLane="1" toLane="1" via=":gneJ11_0_1" dir="s" state="M"/>
    <connection from="gneE9" to="gneE2" fromLane="0" toLane="0" via=":gneJ4_0_0" dir="s" state="M"/>
    <connection from="gneE9" to="gneE2" fromLane="1" toLane="1" via=":gneJ4_0_1" dir="s" state="M"/>

    <connection from=":gneJ10_0" to="gneE8" fromLane="0" toLane="0" dir="s" state="M"/>
    <connection from=":gneJ10_0" to="gneE8" fromLane="1" toLane="1" dir="s" state="M"/>
    <connection from=":gneJ11_0" to="gneE9" fromLane="0" toLane="0" dir="s" state="M"/>
    <connection from=":gneJ11_0" to="gneE9" fromLane="1" toLane="1" dir="s" state="M"/>
    <connection from=":gneJ12_0" to="gneE10" fromLane="0" toLane="0" dir="r" state="M"/>
    <connection from=":gneJ12_1" to="gneE10" fromLane="0" toLane="1" dir="r" state="M"/>
    <connection from=":gneJ12_2" to="gneE7.141" fromLane="0" toLane="0" dir="s" state="M"/>
    <connection from=":gneJ12_2" to="gneE7.141" fromLane="1" toLane="1" dir="s" state="M"/>
    <connection from=":gneJ18_0" to="gneE16" fromLane="0" toLane="0" dir="r" state="M"/>
    <connection from=":gneJ18_1" to="gneE1.12" fromLane="0" toLane="0" dir="s" state="M"/>
    <connection from=":gneJ18_1" to="gneE1.12" fromLane="1" toLane="1" dir="s" state="M"/>
    <connection from=":gneJ19_0" to="gneE7.117" fromLane="0" toLane="0" dir="s" state="M"/>
    <connection from=":gneJ19_0" to="gneE7.117" fromLane="1" toLane="1" dir="s" state="M"/>
    <connection from=":gneJ19_2" to="gneE7.117" fromLane="0" toLane="0" dir="r" state="M"/>
    <connection from=":gneJ2_0" to="gneE1" fromLane="0" toLane="0" dir="s" state="M"/>
    <connection from=":gneJ2_0" to="gneE1" fromLane="1" toLane="1" dir="s" state="M"/>
    <connection from=":gneJ2_2" to="gneE1" fromLane="0" toLane="0" dir="s" state="M"/>
    <connection from=":gneJ2_2" to="gneE1" fromLane="1" toLane="1" dir="s" state="M"/>
    <connection from=":gneJ3_0" to="gneE5" fromLane="0" toLane="0" dir="s" state="M"/>
    <connection from=":gneJ3_0" to="gneE5" fromLane="1" toLane="1" dir="s" state="M"/>
    <connection from=":gneJ4_0" to="gneE2" fromLane="0" toLane="0" dir="s" state="M"/>
    <connection from=":gneJ4_0" to="gneE2" fromLane="1" toLane="1" dir="s" state="M"/>
    <connection from=":gneJ5_0" to="gneE3" fromLane="0" toLane="0" dir="r" state="M"/>
    <connection from=":gneJ5_1" to="gneE3" fromLane="0" toLane="1" dir="r" state="M"/>
    <connection from=":gneJ8_0" to="gneE7" fromLane="0" toLane="0" dir="s" state="M"/>
    <connection from=":gneJ8_0" to="gneE7" fromLane="1" toLane="1" dir="s" state="M"/>

    <roundabout nodes="gneJ10 gneJ11 gneJ12 gneJ18 gneJ19 gneJ2 gneJ3 gneJ4 gneJ8" edges="gneE1 gneE1.12 gneE2 gneE5 gneE7 gneE7.117 gneE7.141 gneE8 gneE9"/>

</net>
