<?xml version="1.0" encoding="UTF-8"?>

<!-- generated on Sun Sep 20 09:13:42 2020 by Eclipse SUMO duarouter Version 1.6.0
<configuration xmlns:xsi="http://www.w3.org/2001/XMLSchema-instance" xsi:noNamespaceSchemaLocation="http://sumo.dlr.de/xsd/duarouterConfiguration.xsd">

    <input>
        <net-file value="../dataset_public/intersection_loop/its_a/map.net.xml"/>
        <route-files value="/tmp/tmphh_18vs8/trips.trips.xml"/>
    </input>

    <output>
        <output-file value="../dataset_public/intersection_loop/its_a/traffic/30_patient_car.rou.xml"/>
        <alternatives-output value="../dataset_public/intersection_loop/its_a/traffic/30_patient_car.rou.alt.xml"/>
    </output>

    <processing>
        <unsorted-input value="true"/>
        <repair value="true"/>
    </processing>

    <report>
        <error-log value="/tmp/smarts/_duarouter_routing/traffic/30_patient_car.log"/>
        <no-step-log value="true"/>
    </report>

    <random_number>
        <seed value="42"/>
    </random_number>

</configuration>
-->

<routes xmlns:xsi="http://www.w3.org/2001/XMLSchema-instance" xsi:noNamespaceSchemaLocation="http://sumo.dlr.de/xsd/routes_file.xsd">
    <vType id="actor-car-434291100351397395" minGap="2.50" speedFactor="normc(0.50,0.20,0.20,2.00)" vClass="passenger" impatience="0.50" lcCooperative="0.5" lcImpatience="0" jmDriveAfterYellowTime="1.0" accel="2.6" decel="4.5" sigma="0.5"/>
    <vehicle id="-flow-random-route-040b3126-ca1d-481f-92f6-de206ed9b42d--8131175172213310655-21-0.0" type="actor-car-434291100351397395" depart="0.00" departLane="0" departPos="22.44" departSpeed="max" arrivalLane="0" arrivalPos="114.48">
        <route edges="gneE12 gneE8 gneE9 gneE2 gneE12"/>
    </vehicle>
    <vehicle id="-flow-random-route-0a10a053-68fc-4010-846e-8e98f8f7c6ea--8131175172213310655-8-0.0" type="actor-car-434291100351397395" depart="0.00" departLane="0" departPos="77.55" departSpeed="max" arrivalLane="0" arrivalPos="39.51">
        <route edges="-gneE14 -gneE13 -gneE11 gneE12 -gneE15"/>
    </vehicle>
    <vehicle id="-flow-random-route-1c2c18dd-4e34-4100-947d-2401b478ff97--8131175172213310655-1-0.0" type="actor-car-434291100351397395" depart="0.00" departLane="0" departPos="10.46" departSpeed="max" arrivalLane="0" arrivalPos="16.57">
        <route edges="gneE11 gneE13 gneE14 gneE15 -gneE12"/>
    </vehicle>
    <vehicle id="-flow-random-route-2329c874-ff9c-49d9-a1c3-b0ca8247a061--8131175172213310655-0-0.0" type="actor-car-434291100351397395" depart="0.00" departLane="0" departPos="48.96" departSpeed="max" arrivalLane="1" arrivalPos="39.54">
        <route edges="-gneE14 -gneE13 -gneE11 gneE12 -gneE15 -gneE14 -gneE13 -gneE11 gneE12 gneE8"/>
    </vehicle>
    <vehicle id="-flow-random-route-24614b81-d54e-43ae-a660-68b221d4498d--8131175172213310655-19-0.0" type="actor-car-434291100351397395" depart="0.00" departLane="0" departPos="102.33" departSpeed="max" arrivalLane="0" arrivalPos="23.88">
        <route edges="gneE14 gneE15 -gneE12 gneE11 gneE13 gneE14 gneE15 gneE8 gneE9 gneE2"/>
    </vehicle>
    <vehicle id="-flow-random-route-3ecb2001-9be0-4b1e-8d46-b065ee9678a1--8131175172213310655-29-0.0" type="actor-car-434291100351397395" depart="0.00" departLane="1" departPos="52.50" departSpeed="max" arrivalLane="0" arrivalPos="47.39">
        <route edges="gneE8 gneE9 gneE2 gneE12 gneE8 gneE9 gneE2 gneE11 gneE13 gneE14"/>
    </vehicle>
    <vehicle id="-flow-random-route-40406b11-2853-459f-ac74-75c62906e7b4--8131175172213310655-10-0.0" type="actor-car-434291100351397395" depart="0.00" departLane="0" departPos="36.07" departSpeed="max" arrivalLane="0" arrivalPos="26.35">
        <route edges="gneE12 gneE8 gneE9 gneE2 gneE12"/>
    </vehicle>
    <vehicle id="-flow-random-route-42084557-36b9-4202-a0a8-fbe3a3269318--8131175172213310655-11-0.0" type="actor-car-434291100351397395" depart="0.00" departLane="0" departPos="31.59" departSpeed="max" arrivalLane="0" arrivalPos="42.51">
        <route edges="gneE15 -gneE12 gneE11 gneE13 gneE14"/>
    </vehicle>
    <vehicle id="-flow-random-route-44265d6e-06d6-4e01-87bc-2e22d28336a5--8131175172213310655-4-0.0" type="actor-car-434291100351397395" depart="0.00" departLane="0" departPos="22.06" departSpeed="max" arrivalLane="0" arrivalPos="73.89">
        <route edges="-gneE14 -gneE13 -gneE11 gneE12 gneE8 gneE9 gneE2 gneE11 gneE13 gneE14"/>
    </vehicle>
    <vehicle id="-flow-random-route-46f0d115-124b-4a47-abcc-0ce0cb22cda5--8131175172213310655-26-0.0" type="actor-car-434291100351397395" depart="0.00" departLane="0" departPos="88.28" departSpeed="max" arrivalLane="0" arrivalPos="85.30">
        <route edges="-gneE12 gneE11 gneE13"/>
    </vehicle>
    <vehicle id="-flow-random-route-4b41adff-9502-469c-9cff-bed02059e3dd--8131175172213310655-7-0.0" type="actor-car-434291100351397395" depart="0.00" departLane="0" departPos="41.04" departSpeed="max" arrivalLane="1" arrivalPos="10.05">
        <route edges="-gneE13 -gneE11 gneE12 gneE8 gneE9 gneE2"/>
    </vehicle>
    <vehicle id="-flow-random-route-5324ac09-5bca-498d-8f1b-0660704000b5--8131175172213310655-2-0.0" type="actor-car-434291100351397395" depart="0.00" departLane="0" departPos="0.85" departSpeed="max" arrivalLane="0" arrivalPos="27.06">
        <route edges="gneE12 -gneE15 -gneE14 -gneE13 -gneE11 gneE12"/>
    </vehicle>
    <vehicle id="-flow-random-route-543643c9-0876-4c84-99a9-86d21200fe8e--8131175172213310655-12-0.0" type="actor-car-434291100351397395" depart="0.00" departLane="1" departPos="40.85" departSpeed="max" arrivalLane="0" arrivalPos="30.50">
        <route edges="gneE9 gneE2 gneE11"/>
    </vehicle>
    <vehicle id="-flow-random-route-62a5a778-fa92-4841-934b-5f58da2d42d6--8131175172213310655-17-0.0" type="actor-car-434291100351397395" depart="0.00" departLane="0" departPos="2.57" departSpeed="max" arrivalLane="0" arrivalPos="93.48">
        <route edges="gneE14 gneE15 -gneE12 gneE11 gneE13"/>
    </vehicle>
    <vehicle id="-flow-random-route-65003f45-41b8-4853-bb3b-4d01afa82b79--8131175172213310655-6-0.0" type="actor-car-434291100351397395" depart="0.00" departLane="0" departPos="41.26" departSpeed="max" arrivalLane="0" arrivalPos="18.03">
        <route edges="gneE2 gneE12 -gneE15 -gneE14 -gneE13"/>
    </vehicle>
    <vehicle id="-flow-random-route-6d0ba2a7-c7e1-45d3-9430-2d13d7cac8ed--8131175172213310655-3-0.0" type="actor-car-434291100351397395" depart="0.00" departLane="0" departPos="10.47" departSpeed="max" arrivalLane="0" arrivalPos="77.88">
        <route edges="-gneE11 gneE12 gneE8 gneE9 gneE2 gneE11 gneE13 gneE14 gneE15 -gneE12"/>
    </vehicle>
    <vehicle id="-flow-random-route-7ccbcda5-c3c7-419c-b707-ea6c4c96e720--8131175172213310655-22-0.0" type="actor-car-434291100351397395" depart="0.00" departLane="0" departPos="68.23" departSpeed="max" arrivalLane="0" arrivalPos="4.65">
        <route edges="gneE12 gneE8 gneE9"/>
    </vehicle>
    <vehicle id="-flow-random-route-837515d7-0921-4210-a1e6-b00fbde453a8--8131175172213310655-5-0.0" type="actor-car-434291100351397395" depart="0.00" departLane="0" departPos="29.97" departSpeed="max" arrivalLane="0" arrivalPos="7.56">
        <route edges="gneE2 gneE11 gneE13 gneE14 gneE15"/>
    </vehicle>
    <vehicle id="-flow-random-route-86485b64-f3c9-445b-af18-6732da46d5bd--8131175172213310655-9-0.0" type="actor-car-434291100351397395" depart="0.00" departLane="0" departPos="45.47" departSpeed="max" arrivalLane="0" arrivalPos="62.53">
        <route edges="gneE12 -gneE15 -gneE14 -gneE13 -gneE11 gneE12"/>
    </vehicle>
    <vehicle id="-flow-random-route-9900cc90-0cca-4542-891d-4ea831196e06--8131175172213310655-23-0.0" type="actor-car-434291100351397395" depart="0.00" departLane="0" departPos="37.51" departSpeed="max" arrivalLane="0" arrivalPos="44.48">
        <route edges="gneE9 gneE2 gneE12 -gneE15 -gneE14 -gneE13 -gneE11 gneE12 gneE8 gneE9"/>
    </vehicle>
    <vehicle id="-flow-random-route-9a222bdf-9328-4e9f-b414-99801a15e5b1--8131175172213310655-13-0.0" type="actor-car-434291100351397395" depart="0.00" departLane="0" departPos="25.52" departSpeed="max" arrivalLane="0" arrivalPos="32.84">
        <route edges="-gneE15 -gneE14 -gneE13 -gneE11 gneE12 gneE8"/>
    </vehicle>
    <vehicle id="-flow-random-route-9c55f7ef-81ea-455b-96c9-2cbbace7f2a5--8131175172213310655-15-0.0" type="actor-car-434291100351397395" depart="0.00" departLane="0" departPos="35.79" departSpeed="max" arrivalLane="0" arrivalPos="61.44">
        <route edges="-gneE15 -gneE14 -gneE13 -gneE11 gneE12"/>
    </vehicle>
    <vehicle id="-flow-random-route-9f469480-cf3a-4cdb-9446-5f8fd24db197--8131175172213310655-28-0.0" type="actor-car-434291100351397395" depart="0.00" departLane="0" departPos="63.68" departSpeed="max" arrivalLane="0" arrivalPos="19.34">
        <route edges="gneE14 gneE15 -gneE12 gneE11 gneE13"/>
    </vehicle>
    <vehicle id="-flow-random-route-ad2acbf4-dd4c-44ae-832a-b243ae82ddf6--8131175172213310655-18-0.0" type="actor-car-434291100351397395" depart="0.00" departLane="0" departPos="29.29" departSpeed="max" arrivalLane="0" arrivalPos="49.45">
        <route edges="gneE13 gneE14 gneE15 -gneE12 gneE11"/>
    </vehicle>
    <vehicle id="-flow-random-route-be1a3433-17bb-47c1-898c-040fb3cab267--8131175172213310655-27-0.0" type="actor-car-434291100351397395" depart="0.00" departLane="0" departPos="36.42" departSpeed="max" arrivalLane="0" arrivalPos="20.79">
        <route edges="gneE15 -gneE12 gneE11 gneE13 gneE14 gneE15 gneE8 gneE9 gneE2 gneE12"/>
    </vehicle>
    <vehicle id="-flow-random-route-c57443c5-01e2-4f9c-953e-fee8987483f1--8131175172213310655-16-0.0" type="actor-car-434291100351397395" depart="0.00" departLane="0" departPos="103.85" departSpeed="max" arrivalLane="0" arrivalPos="11.20">
        <route edges="-gneE12 gneE11 gneE13 gneE14 gneE15"/>
    </vehicle>
    <vehicle id="-flow-random-route-c78d9e5a-2de4-4e92-ab89-37d75d27fbf1--8131175172213310655-25-0.0" type="actor-car-434291100351397395" depart="0.00" departLane="0" departPos="6.12" departSpeed="max" arrivalLane="0" arrivalPos="54.03">
        <route edges="gneE15 -gneE12 gneE11 gneE13 gneE14 gneE15 gneE8 gneE9 gneE2 gneE12"/>
    </vehicle>
    <vehicle id="-flow-random-route-cfb5402c-48eb-43eb-a80f-b4246570e7a6--8131175172213310655-24-0.0" type="actor-car-434291100351397395" depart="0.00" departLane="0" departPos="38.66" departSpeed="max" arrivalLane="1" arrivalPos="23.48">
        <route edges="gneE2 gneE12 gneE8"/>
    </vehicle>
    <vehicle id="-flow-random-route-dd100955-3814-4890-9de6-66f8ac5a7c57--8131175172213310655-20-0.0" type="actor-car-434291100351397395" depart="0.00" departLane="0" departPos="97.81" departSpeed="max" arrivalLane="0" arrivalPos="75.07">
        <route edges="-gneE14 -gneE13 -gneE11 gneE12 gneE8 gneE9 gneE2 gneE11 gneE13 gneE14"/>
    </vehicle>
    <vehicle id="-flow-random-route-ebe05c69-74d4-46fe-9455-48559ef3ff04--8131175172213310655-14-0.0" type="actor-car-434291100351397395" depart="0.00" departLane="0" departPos="56.02" departSpeed="max" arrivalLane="1" arrivalPos="4.81">
        <route edges="gneE8 gneE9 gneE2"/>
    </vehicle>
    <vehicle id="-flow-random-route-040b3126-ca1d-481f-92f6-de206ed9b42d--8131175172213310655-21-0.1" type="actor-car-434291100351397395" depart="120.00" departLane="0" departPos="22.44" departSpeed="max" arrivalLane="0" arrivalPos="114.48">
        <route edges="gneE12 gneE8 gneE9 gneE2 gneE12"/>
    </vehicle>
    <vehicle id="-flow-random-route-0a10a053-68fc-4010-846e-8e98f8f7c6ea--8131175172213310655-8-0.1" type="actor-car-434291100351397395" depart="120.00" departLane="0" departPos="77.55" departSpeed="max" arrivalLane="0" arrivalPos="39.51">
        <route edges="-gneE14 -gneE13 -gneE11 gneE12 -gneE15"/>
    </vehicle>
    <vehicle id="-flow-random-route-1c2c18dd-4e34-4100-947d-2401b478ff97--8131175172213310655-1-0.1" type="actor-car-434291100351397395" depart="120.00" departLane="0" departPos="10.46" departSpeed="max" arrivalLane="0" arrivalPos="16.57">
        <route edges="gneE11 gneE13 gneE14 gneE15 -gneE12"/>
    </vehicle>
    <vehicle id="-flow-random-route-2329c874-ff9c-49d9-a1c3-b0ca8247a061--8131175172213310655-0-0.1" type="actor-car-434291100351397395" depart="120.00" departLane="0" departPos="48.96" departSpeed="max" arrivalLane="1" arrivalPos="39.54">
        <route edges="-gneE14 -gneE13 -gneE11 gneE12 -gneE15 -gneE14 -gneE13 -gneE11 gneE12 gneE8"/>
    </vehicle>
    <vehicle id="-flow-random-route-24614b81-d54e-43ae-a660-68b221d4498d--8131175172213310655-19-0.1" type="actor-car-434291100351397395" depart="120.00" departLane="0" departPos="102.33" departSpeed="max" arrivalLane="0" arrivalPos="23.88">
        <route edges="gneE14 gneE15 -gneE12 gneE11 gneE13 gneE14 gneE15 gneE8 gneE9 gneE2"/>
    </vehicle>
    <vehicle id="-flow-random-route-3ecb2001-9be0-4b1e-8d46-b065ee9678a1--8131175172213310655-29-0.1" type="actor-car-434291100351397395" depart="120.00" departLane="1" departPos="52.50" departSpeed="max" arrivalLane="0" arrivalPos="47.39">
        <route edges="gneE8 gneE9 gneE2 gneE12 gneE8 gneE9 gneE2 gneE11 gneE13 gneE14"/>
    </vehicle>
    <vehicle id="-flow-random-route-40406b11-2853-459f-ac74-75c62906e7b4--8131175172213310655-10-0.1" type="actor-car-434291100351397395" depart="120.00" departLane="0" departPos="36.07" departSpeed="max" arrivalLane="0" arrivalPos="26.35">
        <route edges="gneE12 gneE8 gneE9 gneE2 gneE12"/>
    </vehicle>
    <vehicle id="-flow-random-route-42084557-36b9-4202-a0a8-fbe3a3269318--8131175172213310655-11-0.1" type="actor-car-434291100351397395" depart="120.00" departLane="0" departPos="31.59" departSpeed="max" arrivalLane="0" arrivalPos="42.51">
        <route edges="gneE15 -gneE12 gneE11 gneE13 gneE14"/>
    </vehicle>
    <vehicle id="-flow-random-route-44265d6e-06d6-4e01-87bc-2e22d28336a5--8131175172213310655-4-0.1" type="actor-car-434291100351397395" depart="120.00" departLane="0" departPos="22.06" departSpeed="max" arrivalLane="0" arrivalPos="73.89">
        <route edges="-gneE14 -gneE13 -gneE11 gneE12 gneE8 gneE9 gneE2 gneE11 gneE13 gneE14"/>
    </vehicle>
    <vehicle id="-flow-random-route-46f0d115-124b-4a47-abcc-0ce0cb22cda5--8131175172213310655-26-0.1" type="actor-car-434291100351397395" depart="120.00" departLane="0" departPos="88.28" departSpeed="max" arrivalLane="0" arrivalPos="85.30">
        <route edges="-gneE12 gneE11 gneE13"/>
    </vehicle>
    <vehicle id="-flow-random-route-4b41adff-9502-469c-9cff-bed02059e3dd--8131175172213310655-7-0.1" type="actor-car-434291100351397395" depart="120.00" departLane="0" departPos="41.04" departSpeed="max" arrivalLane="1" arrivalPos="10.05">
        <route edges="-gneE13 -gneE11 gneE12 gneE8 gneE9 gneE2"/>
    </vehicle>
    <vehicle id="-flow-random-route-5324ac09-5bca-498d-8f1b-0660704000b5--8131175172213310655-2-0.1" type="actor-car-434291100351397395" depart="120.00" departLane="0" departPos="0.85" departSpeed="max" arrivalLane="0" arrivalPos="27.06">
        <route edges="gneE12 -gneE15 -gneE14 -gneE13 -gneE11 gneE12"/>
    </vehicle>
    <vehicle id="-flow-random-route-543643c9-0876-4c84-99a9-86d21200fe8e--8131175172213310655-12-0.1" type="actor-car-434291100351397395" depart="120.00" departLane="1" departPos="40.85" departSpeed="max" arrivalLane="0" arrivalPos="30.50">
        <route edges="gneE9 gneE2 gneE11"/>
    </vehicle>
    <vehicle id="-flow-random-route-62a5a778-fa92-4841-934b-5f58da2d42d6--8131175172213310655-17-0.1" type="actor-car-434291100351397395" depart="120.00" departLane="0" departPos="2.57" departSpeed="max" arrivalLane="0" arrivalPos="93.48">
        <route edges="gneE14 gneE15 -gneE12 gneE11 gneE13"/>
    </vehicle>
    <vehicle id="-flow-random-route-65003f45-41b8-4853-bb3b-4d01afa82b79--8131175172213310655-6-0.1" type="actor-car-434291100351397395" depart="120.00" departLane="0" departPos="41.26" departSpeed="max" arrivalLane="0" arrivalPos="18.03">
        <route edges="gneE2 gneE12 -gneE15 -gneE14 -gneE13"/>
    </vehicle>
    <vehicle id="-flow-random-route-6d0ba2a7-c7e1-45d3-9430-2d13d7cac8ed--8131175172213310655-3-0.1" type="actor-car-434291100351397395" depart="120.00" departLane="0" departPos="10.47" departSpeed="max" arrivalLane="0" arrivalPos="77.88">
        <route edges="-gneE11 gneE12 gneE8 gneE9 gneE2 gneE11 gneE13 gneE14 gneE15 -gneE12"/>
    </vehicle>
    <vehicle id="-flow-random-route-7ccbcda5-c3c7-419c-b707-ea6c4c96e720--8131175172213310655-22-0.1" type="actor-car-434291100351397395" depart="120.00" departLane="0" departPos="68.23" departSpeed="max" arrivalLane="0" arrivalPos="4.65">
        <route edges="gneE12 gneE8 gneE9"/>
    </vehicle>
    <vehicle id="-flow-random-route-837515d7-0921-4210-a1e6-b00fbde453a8--8131175172213310655-5-0.1" type="actor-car-434291100351397395" depart="120.00" departLane="0" departPos="29.97" departSpeed="max" arrivalLane="0" arrivalPos="7.56">
        <route edges="gneE2 gneE11 gneE13 gneE14 gneE15"/>
    </vehicle>
    <vehicle id="-flow-random-route-86485b64-f3c9-445b-af18-6732da46d5bd--8131175172213310655-9-0.1" type="actor-car-434291100351397395" depart="120.00" departLane="0" departPos="45.47" departSpeed="max" arrivalLane="0" arrivalPos="62.53">
        <route edges="gneE12 -gneE15 -gneE14 -gneE13 -gneE11 gneE12"/>
    </vehicle>
    <vehicle id="-flow-random-route-9900cc90-0cca-4542-891d-4ea831196e06--8131175172213310655-23-0.1" type="actor-car-434291100351397395" depart="120.00" departLane="0" departPos="37.51" departSpeed="max" arrivalLane="0" arrivalPos="44.48">
        <route edges="gneE9 gneE2 gneE12 -gneE15 -gneE14 -gneE13 -gneE11 gneE12 gneE8 gneE9"/>
    </vehicle>
    <vehicle id="-flow-random-route-9a222bdf-9328-4e9f-b414-99801a15e5b1--8131175172213310655-13-0.1" type="actor-car-434291100351397395" depart="120.00" departLane="0" departPos="25.52" departSpeed="max" arrivalLane="0" arrivalPos="32.84">
        <route edges="-gneE15 -gneE14 -gneE13 -gneE11 gneE12 gneE8"/>
    </vehicle>
    <vehicle id="-flow-random-route-9c55f7ef-81ea-455b-96c9-2cbbace7f2a5--8131175172213310655-15-0.1" type="actor-car-434291100351397395" depart="120.00" departLane="0" departPos="35.79" departSpeed="max" arrivalLane="0" arrivalPos="61.44">
        <route edges="-gneE15 -gneE14 -gneE13 -gneE11 gneE12"/>
    </vehicle>
    <vehicle id="-flow-random-route-9f469480-cf3a-4cdb-9446-5f8fd24db197--8131175172213310655-28-0.1" type="actor-car-434291100351397395" depart="120.00" departLane="0" departPos="63.68" departSpeed="max" arrivalLane="0" arrivalPos="19.34">
        <route edges="gneE14 gneE15 -gneE12 gneE11 gneE13"/>
    </vehicle>
    <vehicle id="-flow-random-route-ad2acbf4-dd4c-44ae-832a-b243ae82ddf6--8131175172213310655-18-0.1" type="actor-car-434291100351397395" depart="120.00" departLane="0" departPos="29.29" departSpeed="max" arrivalLane="0" arrivalPos="49.45">
        <route edges="gneE13 gneE14 gneE15 -gneE12 gneE11"/>
    </vehicle>
    <vehicle id="-flow-random-route-be1a3433-17bb-47c1-898c-040fb3cab267--8131175172213310655-27-0.1" type="actor-car-434291100351397395" depart="120.00" departLane="0" departPos="36.42" departSpeed="max" arrivalLane="0" arrivalPos="20.79">
        <route edges="gneE15 -gneE12 gneE11 gneE13 gneE14 gneE15 gneE8 gneE9 gneE2 gneE12"/>
    </vehicle>
    <vehicle id="-flow-random-route-c57443c5-01e2-4f9c-953e-fee8987483f1--8131175172213310655-16-0.1" type="actor-car-434291100351397395" depart="120.00" departLane="0" departPos="103.85" departSpeed="max" arrivalLane="0" arrivalPos="11.20">
        <route edges="-gneE12 gneE11 gneE13 gneE14 gneE15"/>
    </vehicle>
    <vehicle id="-flow-random-route-c78d9e5a-2de4-4e92-ab89-37d75d27fbf1--8131175172213310655-25-0.1" type="actor-car-434291100351397395" depart="120.00" departLane="0" departPos="6.12" departSpeed="max" arrivalLane="0" arrivalPos="54.03">
        <route edges="gneE15 -gneE12 gneE11 gneE13 gneE14 gneE15 gneE8 gneE9 gneE2 gneE12"/>
    </vehicle>
    <vehicle id="-flow-random-route-cfb5402c-48eb-43eb-a80f-b4246570e7a6--8131175172213310655-24-0.1" type="actor-car-434291100351397395" depart="120.00" departLane="0" departPos="38.66" departSpeed="max" arrivalLane="1" arrivalPos="23.48">
        <route edges="gneE2 gneE12 gneE8"/>
    </vehicle>
    <vehicle id="-flow-random-route-dd100955-3814-4890-9de6-66f8ac5a7c57--8131175172213310655-20-0.1" type="actor-car-434291100351397395" depart="120.00" departLane="0" departPos="97.81" departSpeed="max" arrivalLane="0" arrivalPos="75.07">
        <route edges="-gneE14 -gneE13 -gneE11 gneE12 gneE8 gneE9 gneE2 gneE11 gneE13 gneE14"/>
    </vehicle>
    <vehicle id="-flow-random-route-ebe05c69-74d4-46fe-9455-48559ef3ff04--8131175172213310655-14-0.1" type="actor-car-434291100351397395" depart="120.00" departLane="0" departPos="56.02" departSpeed="max" arrivalLane="1" arrivalPos="4.81">
        <route edges="gneE8 gneE9 gneE2"/>
    </vehicle>
    <vehicle id="-flow-random-route-040b3126-ca1d-481f-92f6-de206ed9b42d--8131175172213310655-21-0.2" type="actor-car-434291100351397395" depart="240.00" departLane="0" departPos="22.44" departSpeed="max" arrivalLane="0" arrivalPos="114.48">
        <route edges="gneE12 gneE8 gneE9 gneE2 gneE12"/>
    </vehicle>
    <vehicle id="-flow-random-route-0a10a053-68fc-4010-846e-8e98f8f7c6ea--8131175172213310655-8-0.2" type="actor-car-434291100351397395" depart="240.00" departLane="0" departPos="77.55" departSpeed="max" arrivalLane="0" arrivalPos="39.51">
        <route edges="-gneE14 -gneE13 -gneE11 gneE12 -gneE15"/>
    </vehicle>
    <vehicle id="-flow-random-route-1c2c18dd-4e34-4100-947d-2401b478ff97--8131175172213310655-1-0.2" type="actor-car-434291100351397395" depart="240.00" departLane="0" departPos="10.46" departSpeed="max" arrivalLane="0" arrivalPos="16.57">
        <route edges="gneE11 gneE13 gneE14 gneE15 -gneE12"/>
    </vehicle>
    <vehicle id="-flow-random-route-2329c874-ff9c-49d9-a1c3-b0ca8247a061--8131175172213310655-0-0.2" type="actor-car-434291100351397395" depart="240.00" departLane="0" departPos="48.96" departSpeed="max" arrivalLane="1" arrivalPos="39.54">
        <route edges="-gneE14 -gneE13 -gneE11 gneE12 -gneE15 -gneE14 -gneE13 -gneE11 gneE12 gneE8"/>
    </vehicle>
    <vehicle id="-flow-random-route-24614b81-d54e-43ae-a660-68b221d4498d--8131175172213310655-19-0.2" type="actor-car-434291100351397395" depart="240.00" departLane="0" departPos="102.33" departSpeed="max" arrivalLane="0" arrivalPos="23.88">
        <route edges="gneE14 gneE15 -gneE12 gneE11 gneE13 gneE14 gneE15 gneE8 gneE9 gneE2"/>
    </vehicle>
    <vehicle id="-flow-random-route-3ecb2001-9be0-4b1e-8d46-b065ee9678a1--8131175172213310655-29-0.2" type="actor-car-434291100351397395" depart="240.00" departLane="1" departPos="52.50" departSpeed="max" arrivalLane="0" arrivalPos="47.39">
        <route edges="gneE8 gneE9 gneE2 gneE12 gneE8 gneE9 gneE2 gneE11 gneE13 gneE14"/>
    </vehicle>
    <vehicle id="-flow-random-route-40406b11-2853-459f-ac74-75c62906e7b4--8131175172213310655-10-0.2" type="actor-car-434291100351397395" depart="240.00" departLane="0" departPos="36.07" departSpeed="max" arrivalLane="0" arrivalPos="26.35">
        <route edges="gneE12 gneE8 gneE9 gneE2 gneE12"/>
    </vehicle>
    <vehicle id="-flow-random-route-42084557-36b9-4202-a0a8-fbe3a3269318--8131175172213310655-11-0.2" type="actor-car-434291100351397395" depart="240.00" departLane="0" departPos="31.59" departSpeed="max" arrivalLane="0" arrivalPos="42.51">
        <route edges="gneE15 -gneE12 gneE11 gneE13 gneE14"/>
    </vehicle>
    <vehicle id="-flow-random-route-44265d6e-06d6-4e01-87bc-2e22d28336a5--8131175172213310655-4-0.2" type="actor-car-434291100351397395" depart="240.00" departLane="0" departPos="22.06" departSpeed="max" arrivalLane="0" arrivalPos="73.89">
        <route edges="-gneE14 -gneE13 -gneE11 gneE12 gneE8 gneE9 gneE2 gneE11 gneE13 gneE14"/>
    </vehicle>
    <vehicle id="-flow-random-route-46f0d115-124b-4a47-abcc-0ce0cb22cda5--8131175172213310655-26-0.2" type="actor-car-434291100351397395" depart="240.00" departLane="0" departPos="88.28" departSpeed="max" arrivalLane="0" arrivalPos="85.30">
        <route edges="-gneE12 gneE11 gneE13"/>
    </vehicle>
    <vehicle id="-flow-random-route-4b41adff-9502-469c-9cff-bed02059e3dd--8131175172213310655-7-0.2" type="actor-car-434291100351397395" depart="240.00" departLane="0" departPos="41.04" departSpeed="max" arrivalLane="1" arrivalPos="10.05">
        <route edges="-gneE13 -gneE11 gneE12 gneE8 gneE9 gneE2"/>
    </vehicle>
    <vehicle id="-flow-random-route-5324ac09-5bca-498d-8f1b-0660704000b5--8131175172213310655-2-0.2" type="actor-car-434291100351397395" depart="240.00" departLane="0" departPos="0.85" departSpeed="max" arrivalLane="0" arrivalPos="27.06">
        <route edges="gneE12 -gneE15 -gneE14 -gneE13 -gneE11 gneE12"/>
    </vehicle>
    <vehicle id="-flow-random-route-543643c9-0876-4c84-99a9-86d21200fe8e--8131175172213310655-12-0.2" type="actor-car-434291100351397395" depart="240.00" departLane="1" departPos="40.85" departSpeed="max" arrivalLane="0" arrivalPos="30.50">
        <route edges="gneE9 gneE2 gneE11"/>
    </vehicle>
    <vehicle id="-flow-random-route-62a5a778-fa92-4841-934b-5f58da2d42d6--8131175172213310655-17-0.2" type="actor-car-434291100351397395" depart="240.00" departLane="0" departPos="2.57" departSpeed="max" arrivalLane="0" arrivalPos="93.48">
        <route edges="gneE14 gneE15 -gneE12 gneE11 gneE13"/>
    </vehicle>
    <vehicle id="-flow-random-route-65003f45-41b8-4853-bb3b-4d01afa82b79--8131175172213310655-6-0.2" type="actor-car-434291100351397395" depart="240.00" departLane="0" departPos="41.26" departSpeed="max" arrivalLane="0" arrivalPos="18.03">
        <route edges="gneE2 gneE12 -gneE15 -gneE14 -gneE13"/>
    </vehicle>
    <vehicle id="-flow-random-route-6d0ba2a7-c7e1-45d3-9430-2d13d7cac8ed--8131175172213310655-3-0.2" type="actor-car-434291100351397395" depart="240.00" departLane="0" departPos="10.47" departSpeed="max" arrivalLane="0" arrivalPos="77.88">
        <route edges="-gneE11 gneE12 gneE8 gneE9 gneE2 gneE11 gneE13 gneE14 gneE15 -gneE12"/>
    </vehicle>
    <vehicle id="-flow-random-route-7ccbcda5-c3c7-419c-b707-ea6c4c96e720--8131175172213310655-22-0.2" type="actor-car-434291100351397395" depart="240.00" departLane="0" departPos="68.23" departSpeed="max" arrivalLane="0" arrivalPos="4.65">
        <route edges="gneE12 gneE8 gneE9"/>
    </vehicle>
    <vehicle id="-flow-random-route-837515d7-0921-4210-a1e6-b00fbde453a8--8131175172213310655-5-0.2" type="actor-car-434291100351397395" depart="240.00" departLane="0" departPos="29.97" departSpeed="max" arrivalLane="0" arrivalPos="7.56">
        <route edges="gneE2 gneE11 gneE13 gneE14 gneE15"/>
    </vehicle>
    <vehicle id="-flow-random-route-86485b64-f3c9-445b-af18-6732da46d5bd--8131175172213310655-9-0.2" type="actor-car-434291100351397395" depart="240.00" departLane="0" departPos="45.47" departSpeed="max" arrivalLane="0" arrivalPos="62.53">
        <route edges="gneE12 -gneE15 -gneE14 -gneE13 -gneE11 gneE12"/>
    </vehicle>
    <vehicle id="-flow-random-route-9900cc90-0cca-4542-891d-4ea831196e06--8131175172213310655-23-0.2" type="actor-car-434291100351397395" depart="240.00" departLane="0" departPos="37.51" departSpeed="max" arrivalLane="0" arrivalPos="44.48">
        <route edges="gneE9 gneE2 gneE12 -gneE15 -gneE14 -gneE13 -gneE11 gneE12 gneE8 gneE9"/>
    </vehicle>
    <vehicle id="-flow-random-route-9a222bdf-9328-4e9f-b414-99801a15e5b1--8131175172213310655-13-0.2" type="actor-car-434291100351397395" depart="240.00" departLane="0" departPos="25.52" departSpeed="max" arrivalLane="0" arrivalPos="32.84">
        <route edges="-gneE15 -gneE14 -gneE13 -gneE11 gneE12 gneE8"/>
    </vehicle>
    <vehicle id="-flow-random-route-9c55f7ef-81ea-455b-96c9-2cbbace7f2a5--8131175172213310655-15-0.2" type="actor-car-434291100351397395" depart="240.00" departLane="0" departPos="35.79" departSpeed="max" arrivalLane="0" arrivalPos="61.44">
        <route edges="-gneE15 -gneE14 -gneE13 -gneE11 gneE12"/>
    </vehicle>
    <vehicle id="-flow-random-route-9f469480-cf3a-4cdb-9446-5f8fd24db197--8131175172213310655-28-0.2" type="actor-car-434291100351397395" depart="240.00" departLane="0" departPos="63.68" departSpeed="max" arrivalLane="0" arrivalPos="19.34">
        <route edges="gneE14 gneE15 -gneE12 gneE11 gneE13"/>
    </vehicle>
    <vehicle id="-flow-random-route-ad2acbf4-dd4c-44ae-832a-b243ae82ddf6--8131175172213310655-18-0.2" type="actor-car-434291100351397395" depart="240.00" departLane="0" departPos="29.29" departSpeed="max" arrivalLane="0" arrivalPos="49.45">
        <route edges="gneE13 gneE14 gneE15 -gneE12 gneE11"/>
    </vehicle>
    <vehicle id="-flow-random-route-be1a3433-17bb-47c1-898c-040fb3cab267--8131175172213310655-27-0.2" type="actor-car-434291100351397395" depart="240.00" departLane="0" departPos="36.42" departSpeed="max" arrivalLane="0" arrivalPos="20.79">
        <route edges="gneE15 -gneE12 gneE11 gneE13 gneE14 gneE15 gneE8 gneE9 gneE2 gneE12"/>
    </vehicle>
    <vehicle id="-flow-random-route-c57443c5-01e2-4f9c-953e-fee8987483f1--8131175172213310655-16-0.2" type="actor-car-434291100351397395" depart="240.00" departLane="0" departPos="103.85" departSpeed="max" arrivalLane="0" arrivalPos="11.20">
        <route edges="-gneE12 gneE11 gneE13 gneE14 gneE15"/>
    </vehicle>
    <vehicle id="-flow-random-route-c78d9e5a-2de4-4e92-ab89-37d75d27fbf1--8131175172213310655-25-0.2" type="actor-car-434291100351397395" depart="240.00" departLane="0" departPos="6.12" departSpeed="max" arrivalLane="0" arrivalPos="54.03">
        <route edges="gneE15 -gneE12 gneE11 gneE13 gneE14 gneE15 gneE8 gneE9 gneE2 gneE12"/>
    </vehicle>
    <vehicle id="-flow-random-route-cfb5402c-48eb-43eb-a80f-b4246570e7a6--8131175172213310655-24-0.2" type="actor-car-434291100351397395" depart="240.00" departLane="0" departPos="38.66" departSpeed="max" arrivalLane="1" arrivalPos="23.48">
        <route edges="gneE2 gneE12 gneE8"/>
    </vehicle>