<?xml version="1.0" encoding="UTF-8"?>

<!-- generated on Tue Sep 15 11:07:17 2020 by Eclipse SUMO duarouter Version 1.6.0
<configuration xmlns:xsi="http://www.w3.org/2001/XMLSchema-instance" xsi:noNamespaceSchemaLocation="http://sumo.dlr.de/xsd/duarouterConfiguration.xsd">

    <input>
        <net-file value="demo2/map.net.xml"/>
        <route-files value="/tmp/tmp_oxhrl_x/trips.trips.xml"/>
    </input>

    <output>
        <output-file value="demo2/traffic/30_patient_car.rou.xml"/>
        <alternatives-output value="demo2/traffic/30_patient_car.rou.alt.xml"/>
    </output>

    <processing>
        <unsorted-input value="true"/>
        <repair value="true"/>
    </processing>

    <report>
        <error-log value="/tmp/smarts/_duarouter_routing/traffic/30_patient_car.log"/>
        <no-step-log value="true"/>
    </report>

    <random_number>
        <seed value="42"/>
    </random_number>

</configuration>
-->

<routes xmlns:xsi="http://www.w3.org/2001/XMLSchema-instance" xsi:noNamespaceSchemaLocation="http://sumo.dlr.de/xsd/routes_file.xsd">
    <vType id="actor-car--3087242325962953853" minGap="2.50" speedFactor="normc(0.50,0.20,0.20,2.00)" vClass="passenger" impatience="0.50" lcCooperative="0.5" lcImpatience="0" jmDriveAfterYellowTime="1.0" accel="2.6" decel="4.5" sigma="0.5"/>
    <vehicle id="-flow-random-route-0035014a-918d-4240-8274-1f634df62d7c--3212361504731885792-0-0.0" type="actor-car--3087242325962953853" depart="0.00" departLane="0" departPos="16.07" departSpeed="max" arrivalLane="0" arrivalPos="70.10">
        <route edges="-gneE34 gneE36 gneE37 gneE20 gneE23 gneE36 gneE37 gneE25 gneE26 gneE27"/>
    </vehicle>
    <vehicle id="-flow-random-route-0135d2b4-8ecf-4dd1-a2ee-22d897c150c8--3212361504731885792-7-0.0" type="actor-car--3087242325962953853" depart="0.00" departLane="0" departPos="57.09" departSpeed="max" arrivalLane="0" arrivalPos="13.83">
        <route edges="-gneE37 -gneE36 gneE34 -gneE35 -gneE22 gneE21 gneE28 gneE31 gneE33 -gneE32"/>
    </vehicle>
    <vehicle id="-flow-random-route-166237e2-a5bc-47e1-a70d-a403f2482d9d--3212361504731885792-12-0.0" type="actor-car--3087242325962953853" depart="0.00" departLane="0" departPos="63.94" departSpeed="max" arrivalLane="0" arrivalPos="76.85">
        <route edges="gneE23 gneE34 -gneE35 gneE32 -gneE33 -gneE31 -gneE27 -gneE26 gneE29 -gneE21"/>
    </vehicle>
    <vehicle id="-flow-random-route-2cabce3a-92bf-491e-a6ef-72c3193d092c--3212361504731885792-9-0.0" type="actor-car--3087242325962953853" depart="0.00" departLane="0" departPos="34.51" departSpeed="max" arrivalLane="0" arrivalPos="21.80">
        <route edges="-gneE37 -gneE36 gneE34 -gneE35 -gneE22 gneE21 gneE28 gneE31 gneE33 gneE30"/>
    </vehicle>
    <vehicle id="-flow-random-route-2e040e22-f700-4a5e-a790-a1510f9e8c5a--3212361504731885792-10-0.0" type="actor-car--3087242325962953853" depart="0.00" departLane="0" departPos="32.94" departSpeed="max" arrivalLane="0" arrivalPos="47.41">
        <route edges="gneE29 -gneE30 -gneE33 -gneE31 -gneE27 -gneE26"/>
    </vehicle>
    <vehicle id="-flow-random-route-3c727c98-cfe8-4034-8106-ccf89441f831--3212361504731885792-14-0.0" type="actor-car--3087242325962953853" depart="0.00" departLane="0" departPos="31.63" departSpeed="max" arrivalLane="0" arrivalPos="37.51">
        <route edges="-gneE25 gneE20 gneE22 gneE32 gneE30 gneE28 -gneE27 -gneE26 gneE29 -gneE30"/>
    </vehicle>
    <vehicle id="-flow-random-route-3fddf00b-7a00-469e-b270-44970c845368--3212361504731885792-18-0.0" type="actor-car--3087242325962953853" depart="0.00" departLane="0" departPos="26.39" departSpeed="max" arrivalLane="0" arrivalPos="76.95">
        <route edges="gneE32 -gneE33 -gneE31 -gneE28 -gneE30 -gneE33 -gneE31 -gneE27 -gneE26 -gneE25"/>
    </vehicle>
    <vehicle id="-flow-random-route-4022f837-d4fc-4ce1-9215-4484845ec954--3212361504731885792-13-0.0" type="actor-car--3087242325962953853" depart="0.00" departLane="0" departPos="11.73" departSpeed="max" arrivalLane="0" arrivalPos="39.14">
        <route edges="-gneE36 -gneE23 gneE22 gneE32 -gneE33 -gneE31 -gneE27 -gneE26 -gneE25 gneE20"/>
    </vehicle>
    <vehicle id="-flow-random-route-41b7506b-1f8c-4539-b181-bc33e238c8c2--3212361504731885792-20-0.0" type="actor-car--3087242325962953853" depart="0.00" departLane="0" departPos="61.43" departSpeed="max" arrivalLane="0" arrivalPos="58.85">
        <route edges="gneE22 gneE32 -gneE33 -gneE31 -gneE28 -gneE21 gneE22 gneE32 gneE30 -gneE29"/>
    </vehicle>
    <vehicle id="-flow-random-route-47762eb6-dbfc-43f4-b923-e58299d097ef--3212361504731885792-15-0.0" type="actor-car--3087242325962953853" depart="0.00" departLane="0" departPos="29.23" departSpeed="max" arrivalLane="0" arrivalPos="47.46">
        <route edges="gneE31 gneE33 -gneE32 -gneE22 -gneE20 -gneE37 -gneE36 gneE34 -gneE35 gneE32"/>
    </vehicle>
    <vehicle id="-flow-random-route-55d4f049-88e7-4a77-9332-d0cc164cc70a--3212361504731885792-3-0.0" type="actor-car--3087242325962953853" depart="0.00" departLane="0" departPos="18.30" departSpeed="max" arrivalLane="0" arrivalPos="80.86">
        <route edges="-gneE25 -gneE37 -gneE36 -gneE23 gneE22 gneE32 gneE30 -gneE21 gneE22 gneE35"/>
    </vehicle>
    <vehicle id="-flow-random-route-5bc8b948-6996-4e1e-8057-59cb0aac2088--3212361504731885792-1-0.0" type="actor-car--3087242325962953853" depart="0.00" departLane="0" departPos="84.16" departSpeed="max" arrivalLane="0" arrivalPos="78.58">
        <route edges="-gneE35 -gneE22 gneE23 gneE34 -gneE35 gneE32 -gneE33 -gneE31 -gneE27 -gneE26"/>
    </vehicle>
    <vehicle id="-flow-random-route-5c0f1e33-9b5c-463d-821c-b0483c330b9b--3212361504731885792-17-0.0" type="actor-car--3087242325962953853" depart="0.00" departLane="0" departPos="35.94" departSpeed="max" arrivalLane="0" arrivalPos="18.06">
        <route edges="-gneE31 -gneE28 -gneE30 -gneE32 -gneE22 -gneE20"/>
    </vehicle>
    <vehicle id="-flow-random-route-653c7a3f-e1e1-488b-ac67-479c34486a2e--3212361504731885792-26-0.0" type="actor-car--3087242325962953853" depart="0.00" departLane="0" departPos="75.22" departSpeed="max" arrivalLane="0" arrivalPos="20.50">
        <route edges="gneE22 gneE32 gneE30 -gneE29 -gneE25 gneE20 gneE23 gneE36 gneE37 gneE25"/>
    </vehicle>
    <vehicle id="-flow-random-route-7a947ed5-3e6d-4b55-a2b5-16674efbd1c9--3212361504731885792-4-0.0" type="actor-car--3087242325962953853" depart="0.00" departLane="0" departPos="19.51" departSpeed="max" arrivalLane="0" arrivalPos="49.58">
        <route edges="-gneE31 -gneE27 -gneE26 -gneE25 -gneE37 -gneE36 gneE34 -gneE35 gneE32 gneE30"/>
    </vehicle>
    <vehicle id="-flow-random-route-8579c93d-e8c7-4617-8369-4d10f05d36cb--3212361504731885792-6-0.0" type="actor-car--3087242325962953853" depart="0.00" departLane="0" departPos="1.80" departSpeed="max" arrivalLane="0" arrivalPos="50.37">
        <route edges="gneE29 -gneE21 -gneE20 gneE25 gneE29 -gneE21 gneE23 gneE34 -gneE35 -gneE22"/>
    </vehicle>
    <vehicle id="-flow-random-route-8bd34913-ccf2-4e08-9c24-4de4672c3743--3212361504731885792-2-0.0" type="actor-car--3087242325962953853" depart="0.00" departLane="0" departPos="69.90" departSpeed="max" arrivalLane="0" arrivalPos="29.93">
        <route edges="gneE30 gneE28 -gneE27 -gneE26 gneE29 -gneE21 gneE22 gneE35 -gneE34 -gneE23"/>
    </vehicle>
    <vehicle id="-flow-random-route-8d42d1e1-e996-454e-bc7a-e3d7fa30cb15--3212361504731885792-24-0.0" type="actor-car--3087242325962953853" depart="0.00" departLane="0" departPos="2.19" departSpeed="max" arrivalLane="0" arrivalPos="84.22">
        <route edges="gneE36 gneE37 gneE25 gneE26 gneE27 -gneE28"/>
    </vehicle>
    <vehicle id="-flow-random-route-8e0aa281-4842-4461-b1e3-709f926ef9f9--3212361504731885792-29-0.0" type="actor-car--3087242325962953853" depart="0.00" departLane="0" departPos="66.63" departSpeed="max" arrivalLane="0" arrivalPos="15.76">
        <route edges="-gneE25 -gneE37"/>
    </vehicle>
    <vehicle id="-flow-random-route-9a261d5b-202e-427b-94c6-2dfd2d268292--3212361504731885792-5-0.0" type="actor-car--3087242325962953853" depart="0.00" departLane="0" departPos="41.66" departSpeed="max" arrivalLane="0" arrivalPos="57.83">
        <route edges="-gneE33 -gneE31 -gneE27 -gneE26 -gneE25 -gneE37 -gneE36 gneE34 -gneE35 -gneE22"/>
    </vehicle>
    <vehicle id="-flow-random-route-abb87edb-1a8a-41cb-a561-18b5fe60f937--3212361504731885792-27-0.0" type="actor-car--3087242325962953853" depart="0.00" departLane="0" departPos="77.40" departSpeed="max" arrivalLane="0" arrivalPos="57.64">
        <route edges="gneE34 -gneE35 gneE32 -gneE33 -gneE31 -gneE28 -gneE30 -gneE32 -gneE22 -gneE20"/>
    </vehicle>
    <vehicle id="-flow-random-route-c56eb68f-5b2f-408d-8f6b-80e91f1ee6a6--3212361504731885792-19-0.0" type="actor-car--3087242325962953853" depart="0.00" departLane="0" departPos="86.41" departSpeed="max" arrivalLane="0" arrivalPos="61.03">
        <route edges="-gneE36 -gneE23 -gneE20 gneE25 gneE26 gneE27 gneE31 gneE33 -gneE32 -gneE22"/>
    </vehicle>
    <vehicle id="-flow-random-route-c58e9853-b001-4e6b-9137-f6f57c992907--3212361504731885792-22-0.0" type="actor-car--3087242325962953853" depart="0.00" departLane="0" departPos="8.75" departSpeed="max" arrivalLane="0" arrivalPos="8.67">
        <route edges="gneE30 -gneE21 gneE23 gneE36 gneE37 gneE25 gneE29 -gneE30 -gneE32 gneE35"/>
    </vehicle>
    <vehicle id="-flow-random-route-c6460678-3c4f-43ea-ab36-1bf4d6427947--3212361504731885792-28-0.0" type="actor-car--3087242325962953853" depart="0.00" departLane="0" departPos="18.34" departSpeed="max" arrivalLane="0" arrivalPos="61.92">
        <route edges="-gneE20 -gneE37 -gneE36 -gneE23 -gneE20 -gneE37 -gneE36 -gneE23 gneE22 gneE32"/>
    </vehicle>
    <vehicle id="-flow-random-route-cb17b8d0-bbfd-406d-b705-4df52a486312--3212361504731885792-11-0.0" type="actor-car--3087242325962953853" depart="0.00" departLane="0" departPos="19.92" departSpeed="max" arrivalLane="0" arrivalPos="48.04">
        <route edges="gneE20 gneE21 -gneE29 -gneE25 gneE20 gneE23"/>
    </vehicle>
    <vehicle id="-flow-random-route-cc833327-ee8a-4349-9c76-85b5f01af1fc--3212361504731885792-16-0.0" type="actor-car--3087242325962953853" depart="0.00" departLane="0" departPos="62.88" departSpeed="max" arrivalLane="0" arrivalPos="52.14">
        <route edges="-gneE35 -gneE22 -gneE20 gneE25 gneE29 -gneE21 gneE23 gneE34 -gneE35 gneE32"/>
    </vehicle>
    <vehicle id="-flow-random-route-ceeecd35-d2aa-450c-b027-168fb9eac9eb--3212361504731885792-21-0.0" type="actor-car--3087242325962953853" depart="0.00" departLane="0" departPos="24.96" departSpeed="max" arrivalLane="0" arrivalPos="74.86">
        <route edges="-gneE27 -gneE26 -gneE25 -gneE37 -gneE36 -gneE23"/>
    </vehicle>
    <vehicle id="-flow-random-route-cf4e2714-d13d-499d-af16-5c448ee60799--3212361504731885792-8-0.0" type="actor-car--3087242325962953853" depart="0.00" departLane="0" departPos="59.25" departSpeed="max" arrivalLane="0" arrivalPos="84.33">
        <route edges="gneE26 gneE27 gneE31 gneE33 -gneE32 -gneE22 gneE23 gneE36 gneE37 gneE25"/>
    </vehicle>
    <vehicle id="-flow-random-route-d272e114-8dfa-493e-962d-cd48f286f42f--3212361504731885792-23-0.0" type="actor-car--3087242325962953853" depart="0.00" departLane="0" departPos="57.80" departSpeed="max" arrivalLane="0" arrivalPos="36.18">
        <route edges="-gneE23 gneE22 gneE35 -gneE34 gneE36 gneE37 gneE25 gneE26 gneE27 gneE31"/>
    </vehicle>
    <vehicle id="-flow-random-route-fcec6434-5ea1-4694-a5ad-8b9621ecba26--3212361504731885792-25-0.0" type="actor-car--3087242325962953853" depart="0.00" departLane="0" departPos="43.46" departSpeed="max" arrivalLane="0" arrivalPos="78.00">
        <route edges="-gneE20 -gneE37 -gneE36 gneE34 -gneE35 gneE32 -gneE33 -gneE31 -gneE27 -gneE26"/>
    </vehicle>
    <vehicle id="-flow-random-route-0035014a-918d-4240-8274-1f634df62d7c--3212361504731885792-0-0.1" type="actor-car--3087242325962953853" depart="120.00" departLane="0" departPos="16.07" departSpeed="max" arrivalLane="0" arrivalPos="70.10">
        <route edges="-gneE34 gneE36 gneE37 gneE20 gneE23 gneE36 gneE37 gneE25 gneE26 gneE27"/>
    </vehicle>
    <vehicle id="-flow-random-route-0135d2b4-8ecf-4dd1-a2ee-22d897c150c8--3212361504731885792-7-0.1" type="actor-car--3087242325962953853" depart="120.00" departLane="0" departPos="57.09" departSpeed="max" arrivalLane="0" arrivalPos="13.83">
        <route edges="-gneE37 -gneE36 gneE34 -gneE35 -gneE22 gneE21 gneE28 gneE31 gneE33 -gneE32"/>
    </vehicle>
    <vehicle id="-flow-random-route-166237e2-a5bc-47e1-a70d-a403f2482d9d--3212361504731885792-12-0.1" type="actor-car--3087242325962953853" depart="120.00" departLane="0" departPos="63.94" departSpeed="max" arrivalLane="0" arrivalPos="76.85">
        <route edges="gneE23 gneE34 -gneE35 gneE32 -gneE33 -gneE31 -gneE27 -gneE26 gneE29 -gneE21"/>
    </vehicle>
    <vehicle id="-flow-random-route-2cabce3a-92bf-491e-a6ef-72c3193d092c--3212361504731885792-9-0.1" type="actor-car--3087242325962953853" depart="120.00" departLane="0" departPos="34.51" departSpeed="max" arrivalLane="0" arrivalPos="21.80">
        <route edges="-gneE37 -gneE36 gneE34 -gneE35 -gneE22 gneE21 gneE28 gneE31 gneE33 gneE30"/>
    </vehicle>
    <vehicle id="-flow-random-route-2e040e22-f700-4a5e-a790-a1510f9e8c5a--3212361504731885792-10-0.1" type="actor-car--3087242325962953853" depart="120.00" departLane="0" departPos="32.94" departSpeed="max" arrivalLane="0" arrivalPos="47.41">
        <route edges="gneE29 -gneE30 -gneE33 -gneE31 -gneE27 -gneE26"/>
    </vehicle>
    <vehicle id="-flow-random-route-3c727c98-cfe8-4034-8106-ccf89441f831--3212361504731885792-14-0.1" type="actor-car--3087242325962953853" depart="120.00" departLane="0" departPos="31.63" departSpeed="max" arrivalLane="0" arrivalPos="37.51">
        <route edges="-gneE25 gneE20 gneE22 gneE32 gneE30 gneE28 -gneE27 -gneE26 gneE29 -gneE30"/>
    </vehicle>
    <vehicle id="-flow-random-route-3fddf00b-7a00-469e-b270-44970c845368--3212361504731885792-18-0.1" type="actor-car--3087242325962953853" depart="120.00" departLane="0" departPos="26.39" departSpeed="max" arrivalLane="0" arrivalPos="76.95">
        <route edges="gneE32 -gneE33 -gneE31 -gneE28 -gneE30 -gneE33 -gneE31 -gneE27 -gneE26 -gneE25"/>
    </vehicle>
    <vehicle id="-flow-random-route-4022f837-d4fc-4ce1-9215-4484845ec954--3212361504731885792-13-0.1" type="actor-car--3087242325962953853" depart="120.00" departLane="0" departPos="11.73" departSpeed="max" arrivalLane="0" arrivalPos="39.14">
        <route edges="-gneE36 -gneE23 gneE22 gneE32 -gneE33 -gneE31 -gneE27 -gneE26 -gneE25 gneE20"/>
    </vehicle>
    <vehicle id="-flow-random-route-41b7506b-1f8c-4539-b181-bc33e238c8c2--3212361504731885792-20-0.1" type="actor-car--3087242325962953853" depart="120.00" departLane="0" departPos="61.43" departSpeed="max" arrivalLane="0" arrivalPos="58.85">
        <route edges="gneE22 gneE32 -gneE33 -gneE31 -gneE28 -gneE21 gneE22 gneE32 gneE30 -gneE29"/>
    </vehicle>
    <vehicle id="-flow-random-route-47762eb6-dbfc-43f4-b923-e58299d097ef--3212361504731885792-15-0.1" type="actor-car--3087242325962953853" depart="120.00" departLane="0" departPos="29.23" departSpeed="max" arrivalLane="0" arrivalPos="47.46">
        <route edges="gneE31 gneE33 -gneE32 -gneE22 -gneE20 -gneE37 -gneE36 gneE34 -gneE35 gneE32"/>
    </vehicle>
    <vehicle id="-flow-random-route-55d4f049-88e7-4a77-9332-d0cc164cc70a--3212361504731885792-3-0.1" type="actor-car--3087242325962953853" depart="120.00" departLane="0" departPos="18.30" departSpeed="max" arrivalLane="0" arrivalPos="80.86">
        <route edges="-gneE25 -gneE37 -gneE36 -gneE23 gneE22 gneE32 gneE30 -gneE21 gneE22 gneE35"/>
    </vehicle>
    <vehicle id="-flow-random-route-5bc8b948-6996-4e1e-8057-59cb0aac2088--3212361504731885792-1-0.1" type="actor-car--3087242325962953853" depart="120.00" departLane="0" departPos="84.16" departSpeed="max" arrivalLane="0" arrivalPos="78.58">
        <route edges="-gneE35 -gneE22 gneE23 gneE34 -gneE35 gneE32 -gneE33 -gneE31 -gneE27 -gneE26"/>
    </vehicle>
    <vehicle id="-flow-random-route-5c0f1e33-9b5c-463d-821c-b0483c330b9b--3212361504731885792-17-0.1" type="actor-car--3087242325962953853" depart="120.00" departLane="0" departPos="35.94" departSpeed="max" arrivalLane="0" arrivalPos="18.06">
        <route edges="-gneE31 -gneE28 -gneE30 -gneE32 -gneE22 -gneE20"/>
    </vehicle>
    <vehicle id="-flow-random-route-653c7a3f-e1e1-488b-ac67-479c34486a2e--3212361504731885792-26-0.1" type="actor-car--3087242325962953853" depart="120.00" departLane="0" departPos="75.22" departSpeed="max" arrivalLane="0" arrivalPos="20.50">
        <route edges="gneE22 gneE32 gneE30 -gneE29 -gneE25 gneE20 gneE23 gneE36 gneE37 gneE25"/>
    </vehicle>
    <vehicle id="-flow-random-route-7a947ed5-3e6d-4b55-a2b5-16674efbd1c9--3212361504731885792-4-0.1" type="actor-car--3087242325962953853" depart="120.00" departLane="0" departPos="19.51" departSpeed="max" arrivalLane="0" arrivalPos="49.58">
        <route edges="-gneE31 -gneE27 -gneE26 -gneE25 -gneE37 -gneE36 gneE34 -gneE35 gneE32 gneE30"/>
    </vehicle>
    <vehicle id="-flow-random-route-8579c93d-e8c7-4617-8369-4d10f05d36cb--3212361504731885792-6-0.1" type="actor-car--3087242325962953853" depart="120.00" departLane="0" departPos="1.80" departSpeed="max" arrivalLane="0" arrivalPos="50.37">
        <route edges="gneE29 -gneE21 -gneE20 gneE25 gneE29 -gneE21 gneE23 gneE34 -gneE35 -gneE22"/>
    </vehicle>
    <vehicle id="-flow-random-route-8bd34913-ccf2-4e08-9c24-4de4672c3743--3212361504731885792-2-0.1" type="actor-car--3087242325962953853" depart="120.00" departLane="0" departPos="69.90" departSpeed="max" arrivalLane="0" arrivalPos="29.93">
        <route edges="gneE30 gneE28 -gneE27 -gneE26 gneE29 -gneE21 gneE22 gneE35 -gneE34 -gneE23"/>
    </vehicle>
    <vehicle id="-flow-random-route-8d42d1e1-e996-454e-bc7a-e3d7fa30cb15--3212361504731885792-24-0.1" type="actor-car--3087242325962953853" depart="120.00" departLane="0" departPos="2.19" departSpeed="max" arrivalLane="0" arrivalPos="84.22">
        <route edges="gneE36 gneE37 gneE25 gneE26 gneE27 -gneE28"/>
    </vehicle>
    <vehicle id="-flow-random-route-8e0aa281-4842-4461-b1e3-709f926ef9f9--3212361504731885792-29-0.1" type="actor-car--3087242325962953853" depart="120.00" departLane="0" departPos="66.63" departSpeed="max" arrivalLane="0" arrivalPos="15.76">
        <route edges="-gneE25 -gneE37"/>
    </vehicle>
    <vehicle id="-flow-random-route-9a261d5b-202e-427b-94c6-2dfd2d268292--3212361504731885792-5-0.1" type="actor-car--3087242325962953853" depart="120.00" departLane="0" departPos="41.66" departSpeed="max" arrivalLane="0" arrivalPos="57.83">
        <route edges="-gneE33 -gneE31 -gneE27 -gneE26 -gneE25 -gneE37 -gneE36 gneE34 -gneE35 -gneE22"/>
    </vehicle>
    <vehicle id="-flow-random-route-abb87edb-1a8a-41cb-a561-18b5fe60f937--3212361504731885792-27-0.1" type="actor-car--3087242325962953853" depart="120.00" departLane="0" departPos="77.40" departSpeed="max" arrivalLane="0" arrivalPos="57.64">
        <route edges="gneE34 -gneE35 gneE32 -gneE33 -gneE31 -gneE28 -gneE30 -gneE32 -gneE22 -gneE20"/>
    </vehicle>
    <vehicle id="-flow-random-route-c56eb68f-5b2f-408d-8f6b-80e91f1ee6a6--3212361504731885792-19-0.1" type="actor-car--3087242325962953853" depart="120.00" departLane="0" departPos="86.41" departSpeed="max" arrivalLane="0" arrivalPos="61.03">
        <route edges="-gneE36 -gneE23 -gneE20 gneE25 gneE26 gneE27 gneE31 gneE33 -gneE32 -gneE22"/>
    </vehicle>
    <vehicle id="-flow-random-route-c58e9853-b001-4e6b-9137-f6f57c992907--3212361504731885792-22-0.1" type="actor-car--3087242325962953853" depart="120.00" departLane="0" departPos="8.75" departSpeed="max" arrivalLane="0" arrivalPos="8.67">
        <route edges="gneE30 -gneE21 gneE23 gneE36 gneE37 gneE25 gneE29 -gneE30 -gneE32 gneE35"/>
    </vehicle>
    <vehicle id="-flow-random-route-c6460678-3c4f-43ea-ab36-1bf4d6427947--3212361504731885792-28-0.1" type="actor-car--3087242325962953853" depart="120.00" departLane="0" departPos="18.34" departSpeed="max" arrivalLane="0" arrivalPos="61.92">
        <route edges="-gneE20 -gneE37 -gneE36 -gneE23 -gneE20 -gneE37 -gneE36 -gneE23 gneE22 gneE32"/>
    </vehicle>
    <vehicle id="-flow-random-route-cb17b8d0-bbfd-406d-b705-4df52a486312--3212361504731885792-11-0.1" type="actor-car--3087242325962953853" depart="120.00" departLane="0" departPos="19.92" departSpeed="max" arrivalLane="0" arrivalPos="48.04">
        <route edges="gneE20 gneE21 -gneE29 -gneE25 gneE20 gneE23"/>
    </vehicle>
    <vehicle id="-flow-random-route-cc833327-ee8a-4349-9c76-85b5f01af1fc--3212361504731885792-16-0.1" type="actor-car--3087242325962953853" depart="120.00" departLane="0" departPos="62.88" departSpeed="max" arrivalLane="0" arrivalPos="52.14">
        <route edges="-gneE35 -gneE22 -gneE20 gneE25 gneE29 -gneE21 gneE23 gneE34 -gneE35 gneE32"/>
    </vehicle>
    <vehicle id="-flow-random-route-ceeecd35-d2aa-450c-b027-168fb9eac9eb--3212361504731885792-21-0.1" type="actor-car--3087242325962953853" depart="120.00" departLane="0" departPos="24.96" departSpeed="max" arrivalLane="0" arrivalPos="74.86">
        <route edges="-gneE27 -gneE26 -gneE25 -gneE37 -gneE36 -gneE23"/>
    </vehicle>
    <vehicle id="-flow-random-route-cf4e2714-d13d-499d-af16-5c448ee60799--3212361504731885792-8-0.1" type="actor-car--3087242325962953853" depart="120.00" departLane="0" departPos="59.25" departSpeed="max" arrivalLane="0" arrivalPos="84.33">
        <route edges="gneE26 gneE27 gneE31 gneE33 -gneE32 -gneE22 gneE23 gneE36 gneE37 gneE25"/>
    </vehicle>
    <vehicle id="-flow-random-route-d272e114-8dfa-493e-962d-cd48f286f42f--3212361504731885792-23-0.1" type="actor-car--3087242325962953853" depart="120.00" departLane="0" departPos="57.80" departSpeed="max" arrivalLane="0" arrivalPos="36.18">
        <route edges="-gneE23 gneE22 gneE35 -gneE34 gneE36 gneE37 gneE25 gneE26 gneE27 gneE31"/>
    </vehicle>
    <vehicle id="-flow-random-route-fcec6434-5ea1-4694-a5ad-8b9621ecba26--3212361504731885792-25-0.1" type="actor-car--3087242325962953853" depart="120.00" departLane="0" departPos="43.46" departSpeed="max" arrivalLane="0" arrivalPos="78.00">
        <route edges="-gneE20 -gneE37 -gneE36 gneE34 -gneE35 gneE32 -gneE33 -gneE31 -gneE27 -gneE26"/>
    </vehicle>
    <vehicle id="-flow-random-route-0035014a-918d-4240-8274-1f634df62d7c--3212361504731885792-0-0.2" type="actor-car--3087242325962953853" depart="240.00" departLane="0" departPos="16.07" departSpeed="max" arrivalLane="0" arrivalPos="70.10">
        <route edges="-gneE34 gneE36 gneE37 gneE20 gneE23 gneE36 gneE37 gneE25 gneE26 gneE27"/>
    </vehicle>
    <vehicle id="-flow-random-route-0135d2b4-8ecf-4dd1-a2ee-22d897c150c8--3212361504731885792-7-0.2" type="actor-car--3087242325962953853" depart="240.00" departLane="0" departPos="57.09" departSpeed="max" arrivalLane="0" arrivalPos="13.83">
        <route edges="-gneE37 -gneE36 gneE34 -gneE35 -gneE22 gneE21 gneE28 gneE31 gneE33 -gneE32"/>
    </vehicle>
    <vehicle id="-flow-random-route-166237e2-a5bc-47e1-a70d-a403f2482d9d--3212361504731885792-12-0.2" type="actor-car--3087242325962953853" depart="240.00" departLane="0" departPos="63.94" departSpeed="max" arrivalLane="0" arrivalPos="76.85">
        <route edges="gneE23 gneE34 -gneE35 gneE32 -gneE33 -gneE31 -gneE27 -gneE26 gneE29 -gneE21"/>
    </vehicle>
    <vehicle id="-flow-random-route-2cabce3a-92bf-491e-a6ef-72c3193d092c--3212361504731885792-9-0.2" type="actor-car--3087242325962953853" depart="240.00" departLane="0" departPos="34.51" departSpeed="max" arrivalLane="0" arrivalPos="21.80">
        <route edges="-gneE37 -gneE36 gneE34 -gneE35 -gneE22 gneE21 gneE28 gneE31 gneE33 gneE30"/>
    </vehicle>
    <vehicle id="-flow-random-route-2e040e22-f700-4a5e-a790-a1510f9e8c5a--3212361504731885792-10-0.2" type="actor-car--3087242325962953853" depart="240.00" departLane="0" departPos="32.94" departSpeed="max" arrivalLane="0" arrivalPos="47.41">
        <route edges="gneE29 -gneE30 -gneE33 -gneE31 -gneE27 -gneE26"/>
    </vehicle>
    <vehicle id="-flow-random-route-3c727c98-cfe8-4034-8106-ccf89441f831--3212361504731885792-14-0.2" type="actor-car--3087242325962953853" depart="240.00" departLane="0" departPos="31.63" departSpeed="max" arrivalLane="0" arrivalPos="37.51">
        <route edges="-gneE25 gneE20 gneE22 gneE32 gneE30 gneE28 -gneE27 -gneE26 gneE29 -gneE30"/>
    </vehicle>
    <vehicle id="-flow-random-route-3fddf00b-7a00-469e-b270-44970c845368--3212361504731885792-18-0.2" type="actor-car--3087242325962953853" depart="240.00" departLane="0" departPos="26.39" departSpeed="max" arrivalLane="0" arrivalPos="76.95">
        <route edges="gneE32 -gneE33 -gneE31 -gneE28 -gneE30 -gneE33 -gneE31 -gneE27 -gneE26 -gneE25"/>
    </vehicle>
    <vehicle id="-flow-random-route-4022f837-d4fc-4ce1-9215-4484845ec954--3212361504731885792-13-0.2" type="actor-car--3087242325962953853" depart="240.00" departLane="0" departPos="11.73" departSpeed="max" arrivalLane="0" arrivalPos="39.14">
        <route edges="-gneE36 -gneE23 gneE22 gneE32 -gneE33 -gneE31 -gneE27 -gneE26 -gneE25 gneE20"/>
    </vehicle>
    <vehicle id="-flow-random-route-41b7506b-1f8c-4539-b181-bc33e238c8c2--3212361504731885792-20-0.2" type="actor-car--3087242325962953853" depart="240.00" departLane="0" departPos="61.43" departSpeed="max" arrivalLane="0" arrivalPos="58.85">
        <route edges="gneE22 gneE32 -gneE33 -gneE31 -gneE28 -gneE21 gneE22 gneE32 gneE30 -gneE29"/>
    </vehicle>
    <vehicle id="-flow-random-route-47762eb6-dbfc-43f4-b923-e58299d097ef--3212361504731885792-15-0.2" type="actor-car--3087242325962953853" depart="240.00" departLane="0" departPos="29.23" departSpeed="max" arrivalLane="0" arrivalPos="47.46">
        <route edges="gneE31 gneE33 -gneE32 -gneE22 -gneE20 -gneE37 -gneE36 gneE34 -gneE35 gneE32"/>
    </vehicle>
    <vehicle id="-flow-random-route-55d4f049-88e7-4a77-9332-d0cc164cc70a--3212361504731885792-3-0.2" type="actor-car--3087242325962953853" depart="240.00" departLane="0" departPos="18.30" departSpeed="max" arrivalLane="0" arrivalPos="80.86">
        <route edges="-gneE25 -gneE37 -gneE36 -gneE23 gneE22 gneE32 gneE30 -gneE21 gneE22 gneE35"/>
    </vehicle>
    <vehicle id="-flow-random-route-5bc8b948-6996-4e1e-8057-59cb0aac2088--3212361504731885792-1-0.2" type="actor-car--3087242325962953853" depart="240.00" departLane="0" departPos="84.16" departSpeed="max" arrivalLane="0" arrivalPos="78.58">
        <route edges="-gneE35 -gneE22 gneE23 gneE34 -gneE35 gneE32 -gneE33 -gneE31 -gneE27 -gneE26"/>
    </vehicle>
    <vehicle id="-flow-random-route-5c0f1e33-9b5c-463d-821c-b0483c330b9b--3212361504731885792-17-0.2" type="actor-car--3087242325962953853" depart="240.00" departLane="0" departPos="35.94" departSpeed="max" arrivalLane="0" arrivalPos="18.06">
        <route edges="-gneE31 -gneE28 -gneE30 -gneE32 -gneE22 -gneE20"/>
    </vehicle>
    <vehicle id="-flow-random-route-653c7a3f-e1e1-488b-ac67-479c34486a2e--3212361504731885792-26-0.2" type="actor-car--3087242325962953853" depart="240.00" departLane="0" departPos="75.22" departSpeed="max" arrivalLane="0" arrivalPos="20.50">
        <route edges="gneE22 gneE32 gneE30 -gneE29 -gneE25 gneE20 gneE23 gneE36 gneE37 gneE25"/>
    </vehicle>
    <vehicle id="-flow-random-route-7a947ed5-3e6d-4b55-a2b5-16674efbd1c9--3212361504731885792-4-0.2" type="actor-car--3087242325962953853" depart="240.00" departLane="0" departPos="19.51" departSpeed="max" arrivalLane="0" arrivalPos="49.58">
        <route edges="-gneE31 -gneE27 -gneE26 -gneE25 -gneE37 -gneE36 gneE34 -gneE35 gneE32 gneE30"/>
    </vehicle>
    <vehicle id="-flow-random-route-8579c93d-e8c7-4617-8369-4d10f05d36cb--3212361504731885792-6-0.2" type="actor-car--3087242325962953853" depart="240.00" departLane="0" departPos="1.80" departSpeed="max" arrivalLane="0" arrivalPos="50.37">
        <route edges="gneE29 -gneE21 -gneE20 gneE25 gneE29 -gneE21 gneE23 gneE34 -gneE35 -gneE22"/>
    </vehicle>
    <vehicle id="-flow-random-route-8bd34913-ccf2-4e08-9c24-4de4672c3743--3212361504731885792-2-0.2" type="actor-car--3087242325962953853" depart="240.00" departLane="0" departPos="69.90" departSpeed="max" arrivalLane="0" arrivalPos="29.93">
        <route edges="gneE30 gneE28 -gneE27 -gneE26 gneE29 -gneE21 gneE22 gneE35 -gneE34 -gneE23"/>
    </vehicle>
    <vehicle id="-flow-random-route-8d42d1e1-e996-454e-bc7a-e3d7fa30cb15--3212361504731885792-24-0.2" type="actor-car--3087242325962953853" depart="240.00" departLane="0" departPos="2.19" departSpeed="max" arrivalLane="0" arrivalPos="84.22">
        <route edges="gneE36 gneE37 gneE25 gneE26 gneE27 -gneE28"/>
    </vehicle>
    <vehicle id="-flow-random-route-8e0aa281-4842-4461-b1e3-709f926ef9f9--3212361504731885792-29-0.2" type="actor-car--3087242325962953853" depart="240.00" departLane="0" departPos="66.63" departSpeed="max" arrivalLane="0" arrivalPos="15.76">
        <route edges="-gneE25 -gneE37"/>
    </vehicle>
    <vehicle id="-flow-random-route-9a261d5b-202e-427b-94c6-2dfd2d268292--3212361504731885792-5-0.2" type="actor-car--3087242325962953853" depart="240.00" departLane="0" departPos="41.66" departSpeed="max" arrivalLane="0" arrivalPos="57.83">
        <route edges="-gneE33 -gneE31 -gneE27 -gneE26 -gneE25 -gneE37 -gneE36 gneE34 -gneE35 -gneE22"/>
    </vehicle>
    <vehicle id="-flow-random-route-abb87edb-1a8a-41cb-a561-18b5fe60f937--3212361504731885792-27-0.2" type="actor-car--3087242325962953853" depart="240.00" departLane="0" departPos="77.40" departSpeed="max" arrivalLane="0" arrivalPos="57.64">
        <route edges="gneE34 -gneE35 gneE32 -gneE33 -gneE31 -gneE28 -gneE30 -gneE32 -gneE22 -gneE20"/>
    </vehicle>
    <vehicle id="-flow-random-route-c56eb68f-5b2f-408d-8f6b-80e91f1ee6a6--3212361504731885792-19-0.2" type="actor-car--3087242325962953853" depart="240.00" departLane="0" departPos="86.41" departSpeed="max" arrivalLane="0" arrivalPos="61.03">