<?xml version="1.0" encoding="UTF-8"?>

<!-- generated on Sun Sep 20 09:13:41 2020 by Eclipse SUMO duarouter Version 1.6.0
<configuration xmlns:xsi="http://www.w3.org/2001/XMLSchema-instance" xsi:noNamespaceSchemaLocation="http://sumo.dlr.de/xsd/duarouterConfiguration.xsd">

    <input>
        <net-file value="../dataset_public/sharp_loop/sharploop_a/map.net.xml"/>
        <route-files value="/tmp/tmp7u8kv_4_/trips.trips.xml"/>
    </input>

    <output>
        <output-file value="../dataset_public/sharp_loop/sharploop_a/traffic/30_patient_car.rou.xml"/>
        <alternatives-output value="../dataset_public/sharp_loop/sharploop_a/traffic/30_patient_car.rou.alt.xml"/>
    </output>

    <processing>
        <unsorted-input value="true"/>
        <repair value="true"/>
    </processing>

    <report>
        <error-log value="/tmp/smarts/_duarouter_routing/traffic/30_patient_car.log"/>
        <no-step-log value="true"/>
    </report>

    <random_number>
        <seed value="42"/>
    </random_number>

</configuration>
-->

<routes xmlns:xsi="http://www.w3.org/2001/XMLSchema-instance" xsi:noNamespaceSchemaLocation="http://sumo.dlr.de/xsd/routes_file.xsd">
    <vType id="actor-car-6969404632432245183" minGap="2.50" speedFactor="normc(0.50,0.20,0.20,2.00)" vClass="passenger" impatience="0.50" lcCooperative="0.5" lcImpatience="0" jmDriveAfterYellowTime="1.0" accel="2.6" decel="4.5" sigma="0.5"/>
    <vehicle id="-flow-random-route-01e42c93-4409-471c-aa93-2ead201afd34-8795566272387935058-8-0.0" type="actor-car-6969404632432245183" depart="0.00" departLane="1" departPos="27.20" departSpeed="max" arrivalLane="1" arrivalPos="26.69">
        <route edges="edge0 edge1"/>
    </vehicle>
    <vehicle id="-flow-random-route-16e8a20a-8947-497c-98ba-2741b4d978e2-8795566272387935058-21-0.0" type="actor-car-6969404632432245183" depart="0.00" departLane="1" departPos="61.11" departSpeed="max" arrivalLane="0" arrivalPos="147.17">
        <route edges="edge0 edge1"/>
    </vehicle>
    <vehicle id="-flow-random-route-1965b73f-762d-4832-8e33-6998c49c5481-8795566272387935058-5-0.0" type="actor-car-6969404632432245183" depart="0.00" departLane="2" departPos="116.06" departSpeed="max" arrivalLane="2" arrivalPos="636.59">
        <route edges="edge0 edge1"/>
    </vehicle>
    <vehicle id="-flow-random-route-2123f75d-1c20-4275-80ee-6b8f8058514b-8795566272387935058-17-0.0" type="actor-car-6969404632432245183" depart="0.00" departLane="0" departPos="112.19" departSpeed="max" arrivalLane="1" arrivalPos="545.75">
        <route edges="edge0 edge1"/>
    </vehicle>
    <vehicle id="-flow-random-route-2e67554c-b572-4bc5-a70f-1afdddd0a6c4-8795566272387935058-29-0.0" type="actor-car-6969404632432245183" depart="0.00" departLane="1" departPos="106.20" departSpeed="max" arrivalLane="2" arrivalPos="88.79">
        <route edges="edge0 edge1"/>
    </vehicle>
    <vehicle id="-flow-random-route-3ba69072-5818-4c9d-ae20-e1f716e4b1da-8795566272387935058-20-0.0" type="actor-car-6969404632432245183" depart="0.00" departLane="2" departPos="278.60" departSpeed="max" arrivalLane="0" arrivalPos="151.91">
        <route edges="edge1 edge0"/>
    </vehicle>
    <vehicle id="-flow-random-route-407f6189-501b-498a-9f48-d1af6a416615-8795566272387935058-4-0.0" type="actor-car-6969404632432245183" depart="0.00" departLane="1" departPos="83.63" departSpeed="max" arrivalLane="2" arrivalPos="37.50">
        <route edges="edge1 edge0"/>
    </vehicle>
    <vehicle id="-flow-random-route-45895f4a-c14d-44d5-9d89-3473ba8ab794-8795566272387935058-14-0.0" type="actor-car-6969404632432245183" depart="0.00" departLane="2" departPos="98.32" departSpeed="max" arrivalLane="1" arrivalPos="220.55">
        <route edges="edge0 edge1"/>
    </vehicle>
    <vehicle id="-flow-random-route-4747ad6c-9293-4032-9e7f-73bf35a22d99-8795566272387935058-25-0.0" type="actor-car-6969404632432245183" depart="0.00" departLane="2" departPos="146.92" departSpeed="max" arrivalLane="1" arrivalPos="31.01">
        <route edges="edge1 edge0"/>
    </vehicle>
    <vehicle id="-flow-random-route-4cc31fa5-ff35-4692-be18-6399f7dee6fa-8795566272387935058-15-0.0" type="actor-car-6969404632432245183" depart="0.00" departLane="1" departPos="212.88" departSpeed="max" arrivalLane="0" arrivalPos="33.96">
        <route edges="edge1 edge0"/>
    </vehicle>
    <vehicle id="-flow-random-route-4ed9e94b-123a-42d2-b98f-6e641f1d3c45-8795566272387935058-10-0.0" type="actor-car-6969404632432245183" depart="0.00" departLane="2" departPos="683.45" departSpeed="max" arrivalLane="0" arrivalPos="112.90">
        <route edges="edge1 edge0"/>
    </vehicle>
    <vehicle id="-flow-random-route-519a507d-286f-43d4-9f8e-7996277d2a2a-8795566272387935058-28-0.0" type="actor-car-6969404632432245183" depart="0.00" departLane="0" departPos="352.51" departSpeed="max" arrivalLane="0" arrivalPos="85.49">
        <route edges="edge1 edge0"/>
    </vehicle>
    <vehicle id="-flow-random-route-54f87f63-1e5a-4681-8781-bea77407352d-8795566272387935058-2-0.0" type="actor-car-6969404632432245183" depart="0.00" departLane="0" departPos="32.24" departSpeed="max" arrivalLane="1" arrivalPos="93.11">
        <route edges="edge1 edge0"/>
    </vehicle>
    <vehicle id="-flow-random-route-55df8073-6994-4483-838f-5a7f4226c7b8-8795566272387935058-18-0.0" type="actor-car-6969404632432245183" depart="0.00" departLane="2" departPos="645.63" departSpeed="max" arrivalLane="2" arrivalPos="104.62">
        <route edges="edge1 edge0"/>
    </vehicle>
    <vehicle id="-flow-random-route-5e94bac5-7ca9-451a-be42-30adf65b30b3-8795566272387935058-0-0.0" type="actor-car-6969404632432245183" depart="0.00" departLane="2" departPos="20.15" departSpeed="max" arrivalLane="2" arrivalPos="401.93">
        <route edges="edge0 edge1"/>
    </vehicle>
    <vehicle id="-flow-random-route-5f0a8bad-8617-4b0c-b5b9-7a06be5a4025-8795566272387935058-3-0.0" type="actor-car-6969404632432245183" depart="0.00" departLane="1" departPos="167.03" departSpeed="max" arrivalLane="0" arrivalPos="133.74">
        <route edges="edge1 edge0"/>
    </vehicle>
    <vehicle id="-flow-random-route-62b1ddd7-688c-4523-ae46-28534591f93e-8795566272387935058-24-0.0" type="actor-car-6969404632432245183" depart="0.00" departLane="2" departPos="386.38" departSpeed="max" arrivalLane="2" arrivalPos="33.54">
        <route edges="edge1 edge0"/>
    </vehicle>
    <vehicle id="-flow-random-route-71d3c946-fa97-4943-b78f-091ad933101f-8795566272387935058-19-0.0" type="actor-car-6969404632432245183" depart="0.00" departLane="1" departPos="308.16" departSpeed="max" arrivalLane="2" arrivalPos="32.55">
        <route edges="edge1 edge0"/>
    </vehicle>
    <vehicle id="-flow-random-route-9826b78e-bc83-43a7-8016-c02b6408d667-8795566272387935058-26-0.0" type="actor-car-6969404632432245183" depart="0.00" departLane="0" departPos="131.70" departSpeed="max" arrivalLane="0" arrivalPos="114.84">
        <route edges="edge0 edge1"/>
    </vehicle>
    <vehicle id="-flow-random-route-9b8c6baa-f0c0-44a7-b7fa-1b3bfd48f2fb-8795566272387935058-11-0.0" type="actor-car-6969404632432245183" depart="0.00" departLane="2" departPos="142.67" departSpeed="max" arrivalLane="2" arrivalPos="49.81">
        <route edges="edge0 edge1"/>
    </vehicle>
    <vehicle id="-flow-random-route-9f78fe4c-0c98-4ba9-9336-a2c5b55ae4b7-8795566272387935058-27-0.0" type="actor-car-6969404632432245183" depart="0.00" departLane="2" departPos="115.04" departSpeed="max" arrivalLane="2" arrivalPos="140.31">
        <route edges="edge0 edge1"/>
    </vehicle>
    <vehicle id="-flow-random-route-a316a236-18c2-4051-a52a-84264ca558da-8795566272387935058-7-0.0" type="actor-car-6969404632432245183" depart="0.00" departLane="1" departPos="33.33" departSpeed="max" arrivalLane="2" arrivalPos="361.30">
        <route edges="edge0 edge1"/>
    </vehicle>
    <vehicle id="-flow-random-route-b51756f8-899d-498c-938d-02fe7c6818e5-8795566272387935058-12-0.0" type="actor-car-6969404632432245183" depart="0.00" departLane="0" departPos="88.22" departSpeed="max" arrivalLane="2" arrivalPos="42.52">
        <route edges="edge0 edge1"/>
    </vehicle>
    <vehicle id="-flow-random-route-be964a4d-5180-439d-8fb0-d18eac345e2b-8795566272387935058-22-0.0" type="actor-car-6969404632432245183" depart="0.00" departLane="2" departPos="151.73" departSpeed="max" arrivalLane="2" arrivalPos="175.37">
        <route edges="edge0 edge1"/>
    </vehicle>
    <vehicle id="-flow-random-route-d7329deb-bbce-4933-803b-e3f26a2f8575-8795566272387935058-1-0.0" type="actor-car-6969404632432245183" depart="0.00" departLane="1" departPos="71.30" departSpeed="max" arrivalLane="1" arrivalPos="14.73">
        <route edges="edge1 edge0"/>
    </vehicle>
    <vehicle id="-flow-random-route-dfef1211-91cf-4892-8ad4-af4269ba8f2d-8795566272387935058-13-0.0" type="actor-car-6969404632432245183" depart="0.00" departLane="0" departPos="42.43" departSpeed="max" arrivalLane="0" arrivalPos="609.99">
        <route edges="edge0 edge1"/>
    </vehicle>
    <vehicle id="-flow-random-route-e19ad35b-dca0-4549-8cf7-24c47dd7cb70-8795566272387935058-9-0.0" type="actor-car-6969404632432245183" depart="0.00" departLane="0" departPos="461.26" departSpeed="max" arrivalLane="1" arrivalPos="150.07">
        <route edges="edge1 edge0"/>
    </vehicle>
    <vehicle id="-flow-random-route-e70bbfc1-2b6e-40f7-b5d1-fcd8b68f6edc-8795566272387935058-6-0.0" type="actor-car-6969404632432245183" depart="0.00" departLane="1" departPos="43.41" departSpeed="max" arrivalLane="1" arrivalPos="581.57">
        <route edges="edge0 edge1"/>
    </vehicle>
    <vehicle id="-flow-random-route-f5248501-bd9c-42f7-9cf5-d7c3ba7410a0-8795566272387935058-16-0.0" type="actor-car-6969404632432245183" depart="0.00" departLane="1" departPos="254.36" departSpeed="max" arrivalLane="0" arrivalPos="136.92">
        <route edges="edge1 edge0"/>
    </vehicle>
    <vehicle id="-flow-random-route-f5df0bb4-9567-46e4-874a-efa3b199b1ed-8795566272387935058-23-0.0" type="actor-car-6969404632432245183" depart="0.00" departLane="2" departPos="8.25" departSpeed="max" arrivalLane="2" arrivalPos="686.49">
        <route edges="edge0 edge1"/>
    </vehicle>
    <vehicle id="-flow-random-route-01e42c93-4409-471c-aa93-2ead201afd34-8795566272387935058-8-0.1" type="actor-car-6969404632432245183" depart="120.00" departLane="1" departPos="27.20" departSpeed="max" arrivalLane="1" arrivalPos="26.69">
        <route edges="edge0 edge1"/>
    </vehicle>
    <vehicle id="-flow-random-route-16e8a20a-8947-497c-98ba-2741b4d978e2-8795566272387935058-21-0.1" type="actor-car-6969404632432245183" depart="120.00" departLane="1" departPos="61.11" departSpeed="max" arrivalLane="0" arrivalPos="147.17">
        <route edges="edge0 edge1"/>
    </vehicle>
    <vehicle id="-flow-random-route-1965b73f-762d-4832-8e33-6998c49c5481-8795566272387935058-5-0.1" type="actor-car-6969404632432245183" depart="120.00" departLane="2" departPos="116.06" departSpeed="max" arrivalLane="2" arrivalPos="636.59">
        <route edges="edge0 edge1"/>
    </vehicle>
    <vehicle id="-flow-random-route-2123f75d-1c20-4275-80ee-6b8f8058514b-8795566272387935058-17-0.1" type="actor-car-6969404632432245183" depart="120.00" departLane="0" departPos="112.19" departSpeed="max" arrivalLane="1" arrivalPos="545.75">
        <route edges="edge0 edge1"/>
    </vehicle>
    <vehicle id="-flow-random-route-2e67554c-b572-4bc5-a70f-1afdddd0a6c4-8795566272387935058-29-0.1" type="actor-car-6969404632432245183" depart="120.00" departLane="1" departPos="106.20" departSpeed="max" arrivalLane="2" arrivalPos="88.79">
        <route edges="edge0 edge1"/>
    </vehicle>
    <vehicle id="-flow-random-route-3ba69072-5818-4c9d-ae20-e1f716e4b1da-8795566272387935058-20-0.1" type="actor-car-6969404632432245183" depart="120.00" departLane="2" departPos="278.60" departSpeed="max" arrivalLane="0" arrivalPos="151.91">
        <route edges="edge1 edge0"/>
    </vehicle>
    <vehicle id="-flow-random-route-407f6189-501b-498a-9f48-d1af6a416615-8795566272387935058-4-0.1" type="actor-car-6969404632432245183" depart="120.00" departLane="1" departPos="83.63" departSpeed="max" arrivalLane="2" arrivalPos="37.50">
        <route edges="edge1 edge0"/>
    </vehicle>
    <vehicle id="-flow-random-route-45895f4a-c14d-44d5-9d89-3473ba8ab794-8795566272387935058-14-0.1" type="actor-car-6969404632432245183" depart="120.00" departLane="2" departPos="98.32" departSpeed="max" arrivalLane="1" arrivalPos="220.55">
        <route edges="edge0 edge1"/>
    </vehicle>
    <vehicle id="-flow-random-route-4747ad6c-9293-4032-9e7f-73bf35a22d99-8795566272387935058-25-0.1" type="actor-car-6969404632432245183" depart="120.00" departLane="2" departPos="146.92" departSpeed="max" arrivalLane="1" arrivalPos="31.01">
        <route edges="edge1 edge0"/>
    </vehicle>
    <vehicle id="-flow-random-route-4cc31fa5-ff35-4692-be18-6399f7dee6fa-8795566272387935058-15-0.1" type="actor-car-6969404632432245183" depart="120.00" departLane="1" departPos="212.88" departSpeed="max" arrivalLane="0" arrivalPos="33.96">
        <route edges="edge1 edge0"/>
    </vehicle>
    <vehicle id="-flow-random-route-4ed9e94b-123a-42d2-b98f-6e641f1d3c45-8795566272387935058-10-0.1" type="actor-car-6969404632432245183" depart="120.00" departLane="2" departPos="683.45" departSpeed="max" arrivalLane="0" arrivalPos="112.90">
        <route edges="edge1 edge0"/>
    </vehicle>
    <vehicle id="-flow-random-route-519a507d-286f-43d4-9f8e-7996277d2a2a-8795566272387935058-28-0.1" type="actor-car-6969404632432245183" depart="120.00" departLane="0" departPos="352.51" departSpeed="max" arrivalLane="0" arrivalPos="85.49">
        <route edges="edge1 edge0"/>
    </vehicle>
    <vehicle id="-flow-random-route-54f87f63-1e5a-4681-8781-bea77407352d-8795566272387935058-2-0.1" type="actor-car-6969404632432245183" depart="120.00" departLane="0" departPos="32.24" departSpeed="max" arrivalLane="1" arrivalPos="93.11">
        <route edges="edge1 edge0"/>
    </vehicle>
    <vehicle id="-flow-random-route-55df8073-6994-4483-838f-5a7f4226c7b8-8795566272387935058-18-0.1" type="actor-car-6969404632432245183" depart="120.00" departLane="2" departPos="645.63" departSpeed="max" arrivalLane="2" arrivalPos="104.62">
        <route edges="edge1 edge0"/>
    </vehicle>
    <vehicle id="-flow-random-route-5e94bac5-7ca9-451a-be42-30adf65b30b3-8795566272387935058-0-0.1" type="actor-car-6969404632432245183" depart="120.00" departLane="2" departPos="20.15" departSpeed="max" arrivalLane="2" arrivalPos="401.93">
        <route edges="edge0 edge1"/>
    </vehicle>
    <vehicle id="-flow-random-route-5f0a8bad-8617-4b0c-b5b9-7a06be5a4025-8795566272387935058-3-0.1" type="actor-car-6969404632432245183" depart="120.00" departLane="1" departPos="167.03" departSpeed="max" arrivalLane="0" arrivalPos="133.74">
        <route edges="edge1 edge0"/>
    </vehicle>
    <vehicle id="-flow-random-route-62b1ddd7-688c-4523-ae46-28534591f93e-8795566272387935058-24-0.1" type="actor-car-6969404632432245183" depart="120.00" departLane="2" departPos="386.38" departSpeed="max" arrivalLane="2" arrivalPos="33.54">
        <route edges="edge1 edge0"/>
    </vehicle>
    <vehicle id="-flow-random-route-71d3c946-fa97-4943-b78f-091ad933101f-8795566272387935058-19-0.1" type="actor-car-6969404632432245183" depart="120.00" departLane="1" departPos="308.16" departSpeed="max" arrivalLane="2" arrivalPos="32.55">
        <route edges="edge1 edge0"/>
    </vehicle>
    <vehicle id="-flow-random-route-9826b78e-bc83-43a7-8016-c02b6408d667-8795566272387935058-26-0.1" type="actor-car-6969404632432245183" depart="120.00" departLane="0" departPos="131.70" departSpeed="max" arrivalLane="0" arrivalPos="114.84">
        <route edges="edge0 edge1"/>
    </vehicle>
    <vehicle id="-flow-random-route-9b8c6baa-f0c0-44a7-b7fa-1b3bfd48f2fb-8795566272387935058-11-0.1" type="actor-car-6969404632432245183" depart="120.00" departLane="2" departPos="142.67" departSpeed="max" arrivalLane="2" arrivalPos="49.81">
        <route edges="edge0 edge1"/>
    </vehicle>
    <vehicle id="-flow-random-route-9f78fe4c-0c98-4ba9-9336-a2c5b55ae4b7-8795566272387935058-27-0.1" type="actor-car-6969404632432245183" depart="120.00" departLane="2" departPos="115.04" departSpeed="max" arrivalLane="2" arrivalPos="140.31">
        <route edges="edge0 edge1"/>
    </vehicle>
    <vehicle id="-flow-random-route-a316a236-18c2-4051-a52a-84264ca558da-8795566272387935058-7-0.1" type="actor-car-6969404632432245183" depart="120.00" departLane="1" departPos="33.33" departSpeed="max" arrivalLane="2" arrivalPos="361.30">
        <route edges="edge0 edge1"/>
    </vehicle>
    <vehicle id="-flow-random-route-b51756f8-899d-498c-938d-02fe7c6818e5-8795566272387935058-12-0.1" type="actor-car-6969404632432245183" depart="120.00" departLane="0" departPos="88.22" departSpeed="max" arrivalLane="2" arrivalPos="42.52">
        <route edges="edge0 edge1"/>
    </vehicle>
    <vehicle id="-flow-random-route-be964a4d-5180-439d-8fb0-d18eac345e2b-8795566272387935058-22-0.1" type="actor-car-6969404632432245183" depart="120.00" departLane="2" departPos="151.73" departSpeed="max" arrivalLane="2" arrivalPos="175.37">
        <route edges="edge0 edge1"/>
    </vehicle>
    <vehicle id="-flow-random-route-d7329deb-bbce-4933-803b-e3f26a2f8575-8795566272387935058-1-0.1" type="actor-car-6969404632432245183" depart="120.00" departLane="1" departPos="71.30" departSpeed="max" arrivalLane="1" arrivalPos="14.73">
        <route edges="edge1 edge0"/>
    </vehicle>
    <vehicle id="-flow-random-route-dfef1211-91cf-4892-8ad4-af4269ba8f2d-8795566272387935058-13-0.1" type="actor-car-6969404632432245183" depart="120.00" departLane="0" departPos="42.43" departSpeed="max" arrivalLane="0" arrivalPos="609.99">
        <route edges="edge0 edge1"/>
    </vehicle>
    <vehicle id="-flow-random-route-e19ad35b-dca0-4549-8cf7-24c47dd7cb70-8795566272387935058-9-0.1" type="actor-car-6969404632432245183" depart="120.00" departLane="0" departPos="461.26" departSpeed="max" arrivalLane="1" arrivalPos="150.07">
        <route edges="edge1 edge0"/>
    </vehicle>
    <vehicle id="-flow-random-route-e70bbfc1-2b6e-40f7-b5d1-fcd8b68f6edc-8795566272387935058-6-0.1" type="actor-car-6969404632432245183" depart="120.00" departLane="1" departPos="43.41" departSpeed="max" arrivalLane="1" arrivalPos="581.57">
        <route edges="edge0 edge1"/>
    </vehicle>
    <vehicle id="-flow-random-route-f5248501-bd9c-42f7-9cf5-d7c3ba7410a0-8795566272387935058-16-0.1" type="actor-car-6969404632432245183" depart="120.00" departLane="1" departPos="254.36" departSpeed="max" arrivalLane="0" arrivalPos="136.92">
        <route edges="edge1 edge0"/>
    </vehicle>
    <vehicle id="-flow-random-route-f5df0bb4-9567-46e4-874a-efa3b199b1ed-8795566272387935058-23-0.1" type="actor-car-6969404632432245183" depart="120.00" departLane="2" departPos="8.25" departSpeed="max" arrivalLane="2" arrivalPos="686.49">
        <route edges="edge0 edge1"/>
    </vehicle>
    <vehicle id="-flow-random-route-01e42c93-4409-471c-aa93-2ead201afd34-8795566272387935058-8-0.2" type="actor-car-6969404632432245183" depart="240.00" departLane="1" departPos="27.20" departSpeed="max" arrivalLane="1" arrivalPos="26.69">
        <route edges="edge0 edge1"/>
    </vehicle>
    <vehicle id="-flow-random-route-16e8a20a-8947-497c-98ba-2741b4d978e2-8795566272387935058-21-0.2" type="actor-car-6969404632432245183" depart="240.00" departLane="1" departPos="61.11" departSpeed="max" arrivalLane="0" arrivalPos="147.17">
        <route edges="edge0 edge1"/>
    </vehicle>
    <vehicle id="-flow-random-route-1965b73f-762d-4832-8e33-6998c49c5481-8795566272387935058-5-0.2" type="actor-car-6969404632432245183" depart="240.00" departLane="2" departPos="116.06" departSpeed="max" arrivalLane="2" arrivalPos="636.59">
        <route edges="edge0 edge1"/>
    </vehicle>
    <vehicle id="-flow-random-route-2123f75d-1c20-4275-80ee-6b8f8058514b-8795566272387935058-17-0.2" type="actor-car-6969404632432245183" depart="240.00" departLane="0" departPos="112.19" departSpeed="max" arrivalLane="1" arrivalPos="545.75">
        <route edges="edge0 edge1"/>
    </vehicle>
    <vehicle id="-flow-random-route-2e67554c-b572-4bc5-a70f-1afdddd0a6c4-8795566272387935058-29-0.2" type="actor-car-6969404632432245183" depart="240.00" departLane="1" departPos="106.20" departSpeed="max" arrivalLane="2" arrivalPos="88.79">
        <route edges="edge0 edge1"/>
    </vehicle>
    <vehicle id="-flow-random-route-3ba69072-5818-4c9d-ae20-e1f716e4b1da-8795566272387935058-20-0.2" type="actor-car-6969404632432245183" depart="240.00" departLane="2" departPos="278.60" departSpeed="max" arrivalLane="0" arrivalPos="151.91">
        <route edges="edge1 edge0"/>
    </vehicle>
    <vehicle id="-flow-random-route-407f6189-501b-498a-9f48-d1af6a416615-8795566272387935058-4-0.2" type="actor-car-6969404632432245183" depart="240.00" departLane="1" departPos="83.63" departSpeed="max" arrivalLane="2" arrivalPos="37.50">
        <route edges="edge1 edge0"/>
    </vehicle>
    <vehicle id="-flow-random-route-45895f4a-c14d-44d5-9d89-3473ba8ab794-8795566272387935058-14-0.2" type="actor-car-6969404632432245183" depart="240.00" departLane="2" departPos="98.32" departSpeed="max" arrivalLane="1" arrivalPos="220.55">
        <route edges="edge0 edge1"/>
    </vehicle>
    <vehicle id="-flow-random-route-4747ad6c-9293-4032-9e7f-73bf35a22d99-8795566272387935058-25-0.2" type="actor-car-6969404632432245183" depart="240.00" departLane="2" departPos="146.92" departSpeed="max" arrivalLane="1" arrivalPos="31.01">
        <route edges="edge1 edge0"/>
    </vehicle>
    <vehicle id="-flow-random-route-4cc31fa5-ff35-4692-be18-6399f7dee6fa-8795566272387935058-15-0.2" type="actor-car-6969404632432245183" depart="240.00" departLane="1" departPos="212.88" departSpeed="max" arrivalLane="0" arrivalPos="33.96">
        <route edges="edge1 edge0"/>
    </vehicle>
    <vehicle id="-flow-random-route-4ed9e94b-123a-42d2-b98f-6e641f1d3c45-8795566272387935058-10-0.2" type="actor-car-6969404632432245183" depart="240.00" departLane="2" departPos="683.45" departSpeed="max" arrivalLane="0" arrivalPos="112.90">
        <route edges="edge1 edge0"/>
    </vehicle>
    <vehicle id="-flow-random-route-519a507d-286f-43d4-9f8e-7996277d2a2a-8795566272387935058-28-0.2" type="actor-car-6969404632432245183" depart="240.00" departLane="0" departPos="352.51" departSpeed="max" arrivalLane="0" arrivalPos="85.49">
        <route edges="edge1 edge0"/>
    </vehicle>
    <vehicle id="-flow-random-route-54f87f63-1e5a-4681-8781-bea77407352d-8795566272387935058-2-0.2" type="actor-car-6969404632432245183" depart="240.00" departLane="0" departPos="32.24" departSpeed="max" arrivalLane="1" arrivalPos="93.11">
        <route edges="edge1 edge0"/>
    </vehicle>
    <vehicle id="-flow-random-route-55df8073-6994-4483-838f-5a7f4226c7b8-8795566272387935058-18-0.2" type="actor-car-6969404632432245183" depart="240.00" departLane="2" departPos="645.63" departSpeed="max" arrivalLane="2" arrivalPos="104.62">
        <route edges="edge1 edge0"/>
    </vehicle>
    <vehicle id="-flow-random-route-5e94bac5-7ca9-451a-be42-30adf65b30b3-8795566272387935058-0-0.2" type="actor-car-6969404632432245183" depart="240.00" departLane="2" departPos="20.15" departSpeed="max" arrivalLane="2" arrivalPos="401.93">
        <route edges="edge0 edge1"/>
    </vehicle>
    <vehicle id="-flow-random-route-5f0a8bad-8617-4b0c-b5b9-7a06be5a4025-8795566272387935058-3-0.2" type="actor-car-6969404632432245183" depart="240.00" departLane="1" departPos="167.03" departSpeed="max" arrivalLane="0" arrivalPos="133.74">
        <route edges="edge1 edge0"/>
    </vehicle>
    <vehicle id="-flow-random-route-62b1ddd7-688c-4523-ae46-28534591f93e-8795566272387935058-24-0.2" type="actor-car-6969404632432245183" depart="240.00" departLane="2" departPos="386.38" departSpeed="max" arrivalLane="2" arrivalPos="33.54">
        <route edges="edge1 edge0"/>
    </vehicle>
    <vehicle id="-flow-random-route-71d3c946-fa97-4943-b78f-091ad933101f-8795566272387935058-19-0.2" type="actor-car-6969404632432245183" depart="240.00" departLane="1" departPos="308.16" departSpeed="max" arrivalLane="2" arrivalPos="32.55">
        <route edges="edge1 edge0"/>
    </vehicle>
    <vehicle id="-flow-random-route-9826b78e-bc83-43a7-8016-c02b6408d667-8795566272387935058-26-0.2" type="actor-car-6969404632432245183" depart="240.00" departLane="0" departPos="131.70" departSpeed="max" arrivalLane="0" arrivalPos="114.84">
        <route edges="edge0 edge1"/>
    </vehicle>
    <vehicle id="-flow-random-route-9b8c6baa-f0c0-44a7-b7fa-1b3bfd48f2fb-8795566272387935058-11-0.2" type="actor-car-6969404632432245183" depart="240.00" departLane="2" departPos="142.67" departSpeed="max" arrivalLane="2" arrivalPos="49.81">
        <route edges="edge0 edge1"/>
    </vehicle>
    <vehicle id="-flow-random-route-9f78fe4c-0c98-4ba9-9336-a2c5b55ae4b7-8795566272387935058-27-0.2" type="actor-car-6969404632432245183" depart="240.00" departLane="2" departPos="115.04" departSpeed="max" arrivalLane="2" arrivalPos="140.31">
        <route edges="edge0 edge1"/>
    </vehicle>
    <vehicle id="-flow-random-route-a316a236-18c2-4051-a52a-84264ca558da-8795566272387935058-7-0.2" type="actor-car-6969404632432245183" depart="240.00" departLane="1" departPos="33.33" departSpeed="max" arrivalLane="2" arrivalPos="361.30">
        <route edges="edge0 edge1"/>
    </vehicle>
    <vehicle id="-flow-random-route-b51756f8-899d-498c-938d-02fe7c6818e5-8795566272387935058-12-0.2" type="actor-car-6969404632432245183" depart="240.00" departLane="0" departPos="88.22" departSpeed="max" arrivalLane="2" arrivalPos="42.52">
        <route edges="edge0 edge1"/>
    </vehicle>
    <vehicle id="-flow-random-route-be964a4d-5180-439d-8fb0-d18eac345e2b-8795566272387935058-22-0.2" type="actor-car-6969404632432245183" depart="240.00" departLane="2" departPos="151.73" departSpeed="max" arrivalLane="2" arrivalPos="175.37">
        <route edges="edge0 edge1"/>
    </vehicle>
    <vehicle id="-flow-random-route-d7329deb-bbce-4933-803b-e3f26a2f8575-8795566272387935058-1-0.2" type="actor-car-6969404632432245183" depart="240.00" departLane="1" departPos="71.30" departSpeed="max" arrivalLane="1" arrivalPos="14.73">
        <route edges="edge1 edge0"/>
    </vehicle>
    <vehicle id="-flow-random-route-dfef1211-91cf-4892-8ad4-af4269ba8f2d-8795566272387935058-13-0.2" type="actor-car-6969404632432245183" depart="240.00" departLane="0" departPos="42.43" departSpeed="max" arrivalLane="0" arrivalPos="609.99">
        <route edges="edge0 edge1"/>
    </vehicle>
    <vehicle id="-flow-random-route-e19ad35b-dca0-4549-8cf7-24c47dd7cb70-8795566272387935058-9-0.2" type="actor-car-6969404632432245183" depart="240.00" departLane="0" departPos="461.26" departSpeed="max" arrivalLane="1" arrivalPos="150.07">
        <route edges="edge1 edge0"/>
    </vehicle>
    <vehicle id="-flow-random-route-e70bbfc1-2b6e-40f7-b5d1-fcd8b68f6edc-8795566272387935058-6-0.2" type="actor-car-6969404632432245183" depart="240.00" departLane="1" departPos="43.41" departSpeed="max" arrivalLane="1" arrivalPos="581.57">
        <route edges="edge0 edge1"/>
    </vehicle>
    <vehicle id="-flow-random-route-f5248501-bd9c-42f7-9cf5-d7c3ba7410a0-8795566272387935058-16-0.2" type="actor-car-6969404632432245183" depart="240.00" departLane="1" departPos="254.36" departSpeed="max" arrivalLane="0" arrivalPos="136.92">
        <route edges="edge1 edge0"/>
    </vehicle>
    <vehicle id="-flow-random-route-f5df0bb4-9567-46e4-874a-efa3b199b1ed-8795566272387935058-23-0.2" type="actor-car-6969404632432245183" depart="240.00" departLane="2" departPos="8.25" departSpeed="max" arrivalLane="2" arrivalPos="686.49">
        <route edges="edge0 edge1"/>
    </vehicle>
    <vehicle id="-flow-random-route-01e42c93-4409-471c-aa93-2ead201afd34-8795566272387935058-8-0.3" type="actor-car-6969404632432245183" depart="360.00" departLane="1" departPos="27.20" departSpeed="max" arrivalLane="1" arrivalPos="26.69">
        <route edges="edge0 edge1"/>
    </vehicle>
    <vehicle id="-flow-random-route-16e8a20a-8947-497c-98ba-2741b4d978e2-8795566272387935058-21-0.3" type="actor-car-6969404632432245183" depart="360.00" departLane="1" departPos="61.11" departSpeed="max" arrivalLane="0" arrivalPos="147.17">
        <route edges="edge0 edge1"/>
    </vehicle>
    <vehicle id="-flow-random-route-1965b73f-762d-4832-8e33-6998c49c5481-8795566272387935058-5-0.3" type="actor-car-6969404632432245183" depart="360.00" departLane="2" departPos="116.06" departSpeed="max" arrivalLane="2" arrivalPos="636.59">
        <route edges="edge0 edge1"/>
    </vehicle>
    <vehicle id="-flow-random-route-2123f75d-1c20-4275-80ee-6b8f8058514b-8795566272387935058-17-0.3" type="actor-car-6969404632432245183" depart="360.00" departLane="0" departPos="112.19" departSpeed="max" arrivalLane="1" arrivalPos="545.75">
        <route edges="edge0 edge1"/>
    </vehicle>
    <vehicle id="-flow-random-route-2e67554c-b572-4bc5-a70f-1afdddd0a6c4-8795566272387935058-29-0.3" type="actor-car-6969404632432245183" depart="360.00" departLane="1" departPos="106.20" departSpeed="max" arrivalLane="2" arrivalPos="88.79">
        <route edges="edge0 edge1"/>
    </vehicle>
    <vehicle id="-flow-random-route-3ba69072-5818-4c9d-ae20-e1f716e4b1da-8795566272387935058-20-0.3" type="actor-car-6969404632432245183" depart="360.00" departLane="2" departPos="278.60" departSpeed="max" arrivalLane="0" arrivalPos="151.91">
        <route edges="edge1 edge0"/>
    </vehicle>
    <vehicle id="-flow-random-route-407f6189-501b-498a-9f48-d1af6a416615-8795566272387935058-4-0.3" type="actor-car-6969404632432245183" depart="360.00" departLane="1" departPos="83.63" departSpeed="max" arrivalLane="2" arrivalPos="37.50">
        <route edges="edge1 edge0"/>
    </vehicle>