<?xml version="1.0" encoding="UTF-8"?>

<!-- generated on Fri Sep 18 07:29:21 2020 by Eclipse SUMO duarouter Version 1.6.0
<configuration xmlns:xsi="http://www.w3.org/2001/XMLSchema-instance" xsi:noNamespaceSchemaLocation="http://sumo.dlr.de/xsd/duarouterConfiguration.xsd">

    <input>
        <net-file value="demo6/map.net.xml"/>
        <route-files value="/tmp/tmpux_ychu4/trips.trips.xml"/>
    </input>

    <output>
        <output-file value="demo6/traffic/30_patient_car.rou.xml"/>
        <alternatives-output value="demo6/traffic/30_patient_car.rou.alt.xml"/>
    </output>

    <processing>
        <unsorted-input value="true"/>
        <repair value="true"/>
    </processing>

    <report>
        <error-log value="/tmp/smarts/_duarouter_routing/traffic/30_patient_car.log"/>
        <no-step-log value="true"/>
    </report>

    <random_number>
        <seed value="42"/>
    </random_number>

</configuration>
-->

<routes xmlns:xsi="http://www.w3.org/2001/XMLSchema-instance" xsi:noNamespaceSchemaLocation="http://sumo.dlr.de/xsd/routes_file.xsd">
    <vType id="actor-car--3709631737198541191" minGap="2.50" speedFactor="normc(0.50,0.20,0.20,2.00)" vClass="passenger" impatience="0.50" lcCooperative="0.5" lcImpatience="0" jmDriveAfterYellowTime="1.0" accel="2.6" decel="4.5" sigma="0.5"/>
    <vehicle id="-flow-random-route-03b94caf-1a3e-499f-9657-7af07a6c3fb1--2071962830164072561-21-0.0" type="actor-car--3709631737198541191" depart="0.00" departLane="0" departPos="53.21" departSpeed="max" arrivalLane="0" arrivalPos="27.66">
        <route edges="-gneE29 gneE10 gneE11"/>
    </vehicle>
    <vehicle id="-flow-random-route-19997122-9c8e-4c64-8aa9-6318dcbd59c1--2071962830164072561-23-0.0" type="actor-car--3709631737198541191" depart="0.00" departLane="0" departPos="7.19" departSpeed="max" arrivalLane="0" arrivalPos="19.49">
        <route edges="-gneE25 -gneE24 -gneE23 -gneE22 -gneE21 -gneE20 -gneE19 -gneE18 -gneE17 -gneE16"/>
    </vehicle>
    <vehicle id="-flow-random-route-19bcbbbd-ba9e-487e-a03f-dec54a657de5--2071962830164072561-15-0.0" type="actor-car--3709631737198541191" depart="0.00" departLane="0" departPos="20.40" departSpeed="max" arrivalLane="0" arrivalPos="5.57">
        <route edges="-gneE16 -gneE15 -gneE14 -gneE13 -gneE12 -gneE11 -gneE10 gneE29 gneE30 gneE15"/>
    </vehicle>
    <vehicle id="-flow-random-route-1ce3606d-4e9c-4f95-83d1-680c731d88bf--2071962830164072561-9-0.0" type="actor-car--3709631737198541191" depart="0.00" departLane="0" departPos="17.33" departSpeed="max" arrivalLane="0" arrivalPos="11.54">
        <route edges="gneE26 gneE27 gneE28 gneE29 gneE30 -gneE14 -gneE13 -gneE12 -gneE11 -gneE10"/>
    </vehicle>
    <vehicle id="-flow-random-route-3ea4980e-b7d4-4033-9ef0-66e691c84704--2071962830164072561-7-0.0" type="actor-car--3709631737198541191" depart="0.00" departLane="0" departPos="13.58" departSpeed="max" arrivalLane="0" arrivalPos="23.08">
        <route edges="-gneE14 -gneE13 -gneE12"/>
    </vehicle>
    <vehicle id="-flow-random-route-434e8ab3-d1e7-4264-a636-7db23b4215b7--2071962830164072561-18-0.0" type="actor-car--3709631737198541191" depart="0.00" departLane="0" departPos="12.42" departSpeed="max" arrivalLane="0" arrivalPos="24.52">
        <route edges="gneE14 gneE15 gneE16 gneE17 gneE18 gneE19 gneE20 gneE21 gneE22 gneE23"/>
    </vehicle>
    <vehicle id="-flow-random-route-47e442b9-1ba3-45ac-aeaf-edf354f9d5ee--2071962830164072561-27-0.0" type="actor-car--3709631737198541191" depart="0.00" departLane="0" departPos="39.05" departSpeed="max" arrivalLane="0" arrivalPos="17.30">
        <route edges="gneE24 gneE25 gneE26 gneE27 gneE28 gneE29 gneE30 -gneE14 -gneE13 -gneE12"/>
    </vehicle>
    <vehicle id="-flow-random-route-4c43c3ac-322b-4c24-bcc4-1f538e5346ce--2071962830164072561-8-0.0" type="actor-car--3709631737198541191" depart="0.00" departLane="0" departPos="7.10" departSpeed="max" arrivalLane="0" arrivalPos="8.96">
        <route edges="gneE15 gneE16 gneE17 gneE18 gneE19 gneE20 gneE21 gneE22 gneE23 gneE24"/>
    </vehicle>
    <vehicle id="-flow-random-route-5005db55-42dc-4274-b3c6-911b7eefd143--2071962830164072561-25-0.0" type="actor-car--3709631737198541191" depart="0.00" departLane="0" departPos="8.42" departSpeed="max" arrivalLane="0" arrivalPos="16.34">
        <route edges="-gneE24 -gneE23 -gneE22 -gneE21 -gneE20 -gneE19 -gneE18 -gneE17 -gneE16 -gneE15"/>
    </vehicle>
    <vehicle id="-flow-random-route-57399465-1a52-4d5b-8fef-d993db5b9f09--2071962830164072561-29-0.0" type="actor-car--3709631737198541191" depart="0.00" departLane="0" departPos="17.55" departSpeed="max" arrivalLane="0" arrivalPos="16.57">
        <route edges="-gneE27 -gneE26 -gneE25 -gneE24 -gneE23 -gneE22 -gneE21 -gneE20 -gneE19 -gneE18"/>
    </vehicle>
    <vehicle id="-flow-random-route-5dbfc4a1-c611-48ec-a6ba-638d9bc8a010--2071962830164072561-28-0.0" type="actor-car--3709631737198541191" depart="0.00" departLane="0" departPos="6.49" departSpeed="max" arrivalLane="0" arrivalPos="29.50">
        <route edges="-gneE12 -gneE11 -gneE10 -gneE28 -gneE27 -gneE26 -gneE25 -gneE24 -gneE23 -gneE22"/>
    </vehicle>
    <vehicle id="-flow-random-route-67a40f9f-92f7-43a0-9a6f-76bcdc2b8705--2071962830164072561-24-0.0" type="actor-car--3709631737198541191" depart="0.00" departLane="0" departPos="9.20" departSpeed="max" arrivalLane="0" arrivalPos="33.50">
        <route edges="-gneE14 -gneE13 -gneE12 -gneE11 -gneE10 -gneE28 -gneE27 -gneE26 -gneE25 -gneE24"/>
    </vehicle>
    <vehicle id="-flow-random-route-696306e7-245a-47cf-9525-63e94695252b--2071962830164072561-22-0.0" type="actor-car--3709631737198541191" depart="0.00" departLane="0" departPos="7.65" departSpeed="max" arrivalLane="0" arrivalPos="3.99">
        <route edges="gneE11 gneE12 gneE13"/>
    </vehicle>
    <vehicle id="-flow-random-route-73c92524-8eaa-4de7-9cda-3598c654c5f1--2071962830164072561-2-0.0" type="actor-car--3709631737198541191" depart="0.00" departLane="0" departPos="25.96" departSpeed="max" arrivalLane="0" arrivalPos="25.23">
        <route edges="-gneE21 -gneE20 -gneE19 -gneE18 -gneE17 -gneE16 -gneE15 -gneE30 -gneE29 -gneE28"/>
    </vehicle>
    <vehicle id="-flow-random-route-7dcb07db-19a2-4170-a2b5-de7c0c2a7945--2071962830164072561-0-0.0" type="actor-car--3709631737198541191" depart="0.00" departLane="0" departPos="6.13" departSpeed="max" arrivalLane="0" arrivalPos="43.36">
        <route edges="gneE14 -gneE30 -gneE29 -gneE28 -gneE27 -gneE26 -gneE25 -gneE24 -gneE23 -gneE22"/>
    </vehicle>
    <vehicle id="-flow-random-route-82a10991-bbf0-4eee-96dc-ca1e6bc649c8--2071962830164072561-3-0.0" type="actor-car--3709631737198541191" depart="0.00" departLane="0" departPos="18.06" departSpeed="max" arrivalLane="0" arrivalPos="10.41">
        <route edges="gneE27 gneE28 gneE10"/>
    </vehicle>
    <vehicle id="-flow-random-route-925b1d8e-5515-4b27-aacf-981e67a84d90--2071962830164072561-19-0.0" type="actor-car--3709631737198541191" depart="0.00" departLane="0" departPos="8.46" departSpeed="max" arrivalLane="0" arrivalPos="24.94">
        <route edges="gneE16 gneE17 gneE18 gneE19 gneE20 gneE21 gneE22 gneE23 gneE24 gneE25"/>
    </vehicle>
    <vehicle id="-flow-random-route-995fc335-ee97-495f-9faf-fb4322458455--2071962830164072561-26-0.0" type="actor-car--3709631737198541191" depart="0.00" departLane="0" departPos="4.15" departSpeed="max" arrivalLane="0" arrivalPos="13.35">
        <route edges="-gneE26 -gneE25 -gneE24 -gneE23 -gneE22 -gneE21 -gneE20 -gneE19 -gneE18 -gneE17"/>
    </vehicle>
    <vehicle id="-flow-random-route-a5184865-c02e-4692-b271-126d41d6525a--2071962830164072561-16-0.0" type="actor-car--3709631737198541191" depart="0.00" departLane="0" departPos="24.12" departSpeed="max" arrivalLane="0" arrivalPos="21.73">
        <route edges="-gneE14 -gneE13 -gneE12 -gneE11 -gneE10 gneE29 gneE30 gneE15 gneE16 gneE17"/>
    </vehicle>
    <vehicle id="-flow-random-route-a7c8783e-d67b-4531-a64a-6f230a5c8882--2071962830164072561-14-0.0" type="actor-car--3709631737198541191" depart="0.00" departLane="0" departPos="34.14" departSpeed="max" arrivalLane="0" arrivalPos="36.59">
        <route edges="-gneE23 -gneE22 -gneE21 -gneE20 -gneE19 -gneE18 -gneE17 -gneE16 -gneE15 -gneE30"/>
    </vehicle>
    <vehicle id="-flow-random-route-b530bbee-0b86-4289-80a3-6f65be30fac0--2071962830164072561-4-0.0" type="actor-car--3709631737198541191" depart="0.00" departLane="0" departPos="7.99" departSpeed="max" arrivalLane="0" arrivalPos="2.84">
        <route edges="-gneE22 -gneE21 -gneE20 -gneE19 -gneE18 -gneE17 -gneE16 -gneE15 -gneE30 -gneE29"/>
    </vehicle>
    <vehicle id="-flow-random-route-bcadaa0e-ffe7-44f8-86dd-7ca8e19548b6--2071962830164072561-12-0.0" type="actor-car--3709631737198541191" depart="0.00" departLane="0" departPos="16.45" departSpeed="max" arrivalLane="0" arrivalPos="2.05">
        <route edges="gneE13 gneE14 gneE15 gneE16 gneE17 gneE18 gneE19 gneE20 gneE21 gneE22"/>
    </vehicle>
    <vehicle id="-flow-random-route-daa14343-bf98-4a90-a1b1-977fe1dea8b4--2071962830164072561-1-0.0" type="actor-car--3709631737198541191" depart="0.00" departLane="0" departPos="0.23" departSpeed="max" arrivalLane="0" arrivalPos="10.61">
        <route edges="gneE14 gneE15 gneE16 gneE17 gneE18 gneE19 gneE20 gneE21 gneE22 gneE23"/>
    </vehicle>
    <vehicle id="-flow-random-route-e10e5f27-c066-4e02-b0eb-a80f8aa2901e--2071962830164072561-11-0.0" type="actor-car--3709631737198541191" depart="0.00" departLane="0" departPos="3.63" departSpeed="max" arrivalLane="0" arrivalPos="21.38">
        <route edges="gneE25 gneE26 gneE27 gneE28 gneE10 gneE11 gneE12 gneE13 gneE14 -gneE30"/>
    </vehicle>
    <vehicle id="-flow-random-route-e50d5707-f55e-4e95-b184-e00620b7fa65--2071962830164072561-5-0.0" type="actor-car--3709631737198541191" depart="0.00" departLane="0" departPos="7.42" departSpeed="max" arrivalLane="0" arrivalPos="24.60">
        <route edges="-gneE20 -gneE19 -gneE18 -gneE17 -gneE16 -gneE15 -gneE30 -gneE29 gneE10 gneE11"/>
    </vehicle>
    <vehicle id="-flow-random-route-e8bcfdff-f446-4944-848c-6576c147318a--2071962830164072561-20-0.0" type="actor-car--3709631737198541191" depart="0.00" departLane="0" departPos="44.77" departSpeed="max" arrivalLane="0" arrivalPos="2.84">
        <route edges="gneE30 -gneE14 -gneE13 -gneE12 -gneE11 -gneE10 -gneE28 -gneE27 -gneE26 -gneE25"/>
    </vehicle>
    <vehicle id="-flow-random-route-e94798f9-b59b-45b4-bcb8-f559420f0e1a--2071962830164072561-13-0.0" type="actor-car--3709631737198541191" depart="0.00" departLane="0" departPos="38.44" departSpeed="max" arrivalLane="0" arrivalPos="18.59">
        <route edges="gneE30 gneE15 gneE16 gneE17 gneE18 gneE19 gneE20 gneE21 gneE22 gneE23"/>
    </vehicle>
    <vehicle id="-flow-random-route-eb5222c2-9922-4ffc-918c-5dea90997d0b--2071962830164072561-10-0.0" type="actor-car--3709631737198541191" depart="0.00" departLane="0" departPos="25.77" departSpeed="max" arrivalLane="0" arrivalPos="16.55">
        <route edges="-gneE25 -gneE24 -gneE23 -gneE22 -gneE21 -gneE20 -gneE19 -gneE18 -gneE17 -gneE16"/>
    </vehicle>
    <vehicle id="-flow-random-route-fbd63de2-bb7e-40f4-a51d-329676ee67d2--2071962830164072561-6-0.0" type="actor-car--3709631737198541191" depart="0.00" departLane="0" departPos="15.62" departSpeed="max" arrivalLane="0" arrivalPos="7.28">
        <route edges="-gneE21 -gneE20 -gneE19 -gneE18 -gneE17 -gneE16 -gneE15 -gneE14 -gneE13 -gneE12"/>
    </vehicle>
    <vehicle id="-flow-random-route-ff690d17-4d08-4b9f-9ab4-03986407568f--2071962830164072561-17-0.0" type="actor-car--3709631737198541191" depart="0.00" departLane="0" departPos="7.07" departSpeed="max" arrivalLane="0" arrivalPos="1.22">
        <route edges="-gneE14 -gneE13 -gneE12 -gneE11 -gneE10 gneE29 gneE30 gneE15 gneE16 gneE17"/>
    </vehicle>
    <vehicle id="-flow-random-route-03b94caf-1a3e-499f-9657-7af07a6c3fb1--2071962830164072561-21-0.1" type="actor-car--3709631737198541191" depart="120.00" departLane="0" departPos="53.21" departSpeed="max" arrivalLane="0" arrivalPos="27.66">
        <route edges="-gneE29 gneE10 gneE11"/>
    </vehicle>
    <vehicle id="-flow-random-route-19997122-9c8e-4c64-8aa9-6318dcbd59c1--2071962830164072561-23-0.1" type="actor-car--3709631737198541191" depart="120.00" departLane="0" departPos="7.19" departSpeed="max" arrivalLane="0" arrivalPos="19.49">
        <route edges="-gneE25 -gneE24 -gneE23 -gneE22 -gneE21 -gneE20 -gneE19 -gneE18 -gneE17 -gneE16"/>
    </vehicle>
    <vehicle id="-flow-random-route-19bcbbbd-ba9e-487e-a03f-dec54a657de5--2071962830164072561-15-0.1" type="actor-car--3709631737198541191" depart="120.00" departLane="0" departPos="20.40" departSpeed="max" arrivalLane="0" arrivalPos="5.57">
        <route edges="-gneE16 -gneE15 -gneE14 -gneE13 -gneE12 -gneE11 -gneE10 gneE29 gneE30 gneE15"/>
    </vehicle>
    <vehicle id="-flow-random-route-1ce3606d-4e9c-4f95-83d1-680c731d88bf--2071962830164072561-9-0.1" type="actor-car--3709631737198541191" depart="120.00" departLane="0" departPos="17.33" departSpeed="max" arrivalLane="0" arrivalPos="11.54">
        <route edges="gneE26 gneE27 gneE28 gneE29 gneE30 -gneE14 -gneE13 -gneE12 -gneE11 -gneE10"/>
    </vehicle>
    <vehicle id="-flow-random-route-3ea4980e-b7d4-4033-9ef0-66e691c84704--2071962830164072561-7-0.1" type="actor-car--3709631737198541191" depart="120.00" departLane="0" departPos="13.58" departSpeed="max" arrivalLane="0" arrivalPos="23.08">
        <route edges="-gneE14 -gneE13 -gneE12"/>
    </vehicle>
    <vehicle id="-flow-random-route-434e8ab3-d1e7-4264-a636-7db23b4215b7--2071962830164072561-18-0.1" type="actor-car--3709631737198541191" depart="120.00" departLane="0" departPos="12.42" departSpeed="max" arrivalLane="0" arrivalPos="24.52">
        <route edges="gneE14 gneE15 gneE16 gneE17 gneE18 gneE19 gneE20 gneE21 gneE22 gneE23"/>
    </vehicle>
    <vehicle id="-flow-random-route-47e442b9-1ba3-45ac-aeaf-edf354f9d5ee--2071962830164072561-27-0.1" type="actor-car--3709631737198541191" depart="120.00" departLane="0" departPos="39.05" departSpeed="max" arrivalLane="0" arrivalPos="17.30">
        <route edges="gneE24 gneE25 gneE26 gneE27 gneE28 gneE29 gneE30 -gneE14 -gneE13 -gneE12"/>
    </vehicle>
    <vehicle id="-flow-random-route-4c43c3ac-322b-4c24-bcc4-1f538e5346ce--2071962830164072561-8-0.1" type="actor-car--3709631737198541191" depart="120.00" departLane="0" departPos="7.10" departSpeed="max" arrivalLane="0" arrivalPos="8.96">
        <route edges="gneE15 gneE16 gneE17 gneE18 gneE19 gneE20 gneE21 gneE22 gneE23 gneE24"/>
    </vehicle>
    <vehicle id="-flow-random-route-5005db55-42dc-4274-b3c6-911b7eefd143--2071962830164072561-25-0.1" type="actor-car--3709631737198541191" depart="120.00" departLane="0" departPos="8.42" departSpeed="max" arrivalLane="0" arrivalPos="16.34">
        <route edges="-gneE24 -gneE23 -gneE22 -gneE21 -gneE20 -gneE19 -gneE18 -gneE17 -gneE16 -gneE15"/>
    </vehicle>
    <vehicle id="-flow-random-route-57399465-1a52-4d5b-8fef-d993db5b9f09--2071962830164072561-29-0.1" type="actor-car--3709631737198541191" depart="120.00" departLane="0" departPos="17.55" departSpeed="max" arrivalLane="0" arrivalPos="16.57">
        <route edges="-gneE27 -gneE26 -gneE25 -gneE24 -gneE23 -gneE22 -gneE21 -gneE20 -gneE19 -gneE18"/>
    </vehicle>
    <vehicle id="-flow-random-route-5dbfc4a1-c611-48ec-a6ba-638d9bc8a010--2071962830164072561-28-0.1" type="actor-car--3709631737198541191" depart="120.00" departLane="0" departPos="6.49" departSpeed="max" arrivalLane="0" arrivalPos="29.50">
        <route edges="-gneE12 -gneE11 -gneE10 -gneE28 -gneE27 -gneE26 -gneE25 -gneE24 -gneE23 -gneE22"/>
    </vehicle>
    <vehicle id="-flow-random-route-67a40f9f-92f7-43a0-9a6f-76bcdc2b8705--2071962830164072561-24-0.1" type="actor-car--3709631737198541191" depart="120.00" departLane="0" departPos="9.20" departSpeed="max" arrivalLane="0" arrivalPos="33.50">
        <route edges="-gneE14 -gneE13 -gneE12 -gneE11 -gneE10 -gneE28 -gneE27 -gneE26 -gneE25 -gneE24"/>
    </vehicle>
    <vehicle id="-flow-random-route-696306e7-245a-47cf-9525-63e94695252b--2071962830164072561-22-0.1" type="actor-car--3709631737198541191" depart="120.00" departLane="0" departPos="7.65" departSpeed="max" arrivalLane="0" arrivalPos="3.99">
        <route edges="gneE11 gneE12 gneE13"/>
    </vehicle>
    <vehicle id="-flow-random-route-73c92524-8eaa-4de7-9cda-3598c654c5f1--2071962830164072561-2-0.1" type="actor-car--3709631737198541191" depart="120.00" departLane="0" departPos="25.96" departSpeed="max" arrivalLane="0" arrivalPos="25.23">
        <route edges="-gneE21 -gneE20 -gneE19 -gneE18 -gneE17 -gneE16 -gneE15 -gneE30 -gneE29 -gneE28"/>
    </vehicle>
    <vehicle id="-flow-random-route-7dcb07db-19a2-4170-a2b5-de7c0c2a7945--2071962830164072561-0-0.1" type="actor-car--3709631737198541191" depart="120.00" departLane="0" departPos="6.13" departSpeed="max" arrivalLane="0" arrivalPos="43.36">
        <route edges="gneE14 -gneE30 -gneE29 -gneE28 -gneE27 -gneE26 -gneE25 -gneE24 -gneE23 -gneE22"/>
    </vehicle>
    <vehicle id="-flow-random-route-82a10991-bbf0-4eee-96dc-ca1e6bc649c8--2071962830164072561-3-0.1" type="actor-car--3709631737198541191" depart="120.00" departLane="0" departPos="18.06" departSpeed="max" arrivalLane="0" arrivalPos="10.41">
        <route edges="gneE27 gneE28 gneE10"/>
    </vehicle>
    <vehicle id="-flow-random-route-925b1d8e-5515-4b27-aacf-981e67a84d90--2071962830164072561-19-0.1" type="actor-car--3709631737198541191" depart="120.00" departLane="0" departPos="8.46" departSpeed="max" arrivalLane="0" arrivalPos="24.94">
        <route edges="gneE16 gneE17 gneE18 gneE19 gneE20 gneE21 gneE22 gneE23 gneE24 gneE25"/>
    </vehicle>
    <vehicle id="-flow-random-route-995fc335-ee97-495f-9faf-fb4322458455--2071962830164072561-26-0.1" type="actor-car--3709631737198541191" depart="120.00" departLane="0" departPos="4.15" departSpeed="max" arrivalLane="0" arrivalPos="13.35">
        <route edges="-gneE26 -gneE25 -gneE24 -gneE23 -gneE22 -gneE21 -gneE20 -gneE19 -gneE18 -gneE17"/>
    </vehicle>
    <vehicle id="-flow-random-route-a5184865-c02e-4692-b271-126d41d6525a--2071962830164072561-16-0.1" type="actor-car--3709631737198541191" depart="120.00" departLane="0" departPos="24.12" departSpeed="max" arrivalLane="0" arrivalPos="21.73">
        <route edges="-gneE14 -gneE13 -gneE12 -gneE11 -gneE10 gneE29 gneE30 gneE15 gneE16 gneE17"/>
    </vehicle>
    <vehicle id="-flow-random-route-a7c8783e-d67b-4531-a64a-6f230a5c8882--2071962830164072561-14-0.1" type="actor-car--3709631737198541191" depart="120.00" departLane="0" departPos="34.14" departSpeed="max" arrivalLane="0" arrivalPos="36.59">
        <route edges="-gneE23 -gneE22 -gneE21 -gneE20 -gneE19 -gneE18 -gneE17 -gneE16 -gneE15 -gneE30"/>
    </vehicle>
    <vehicle id="-flow-random-route-b530bbee-0b86-4289-80a3-6f65be30fac0--2071962830164072561-4-0.1" type="actor-car--3709631737198541191" depart="120.00" departLane="0" departPos="7.99" departSpeed="max" arrivalLane="0" arrivalPos="2.84">
        <route edges="-gneE22 -gneE21 -gneE20 -gneE19 -gneE18 -gneE17 -gneE16 -gneE15 -gneE30 -gneE29"/>
    </vehicle>
    <vehicle id="-flow-random-route-bcadaa0e-ffe7-44f8-86dd-7ca8e19548b6--2071962830164072561-12-0.1" type="actor-car--3709631737198541191" depart="120.00" departLane="0" departPos="16.45" departSpeed="max" arrivalLane="0" arrivalPos="2.05">
        <route edges="gneE13 gneE14 gneE15 gneE16 gneE17 gneE18 gneE19 gneE20 gneE21 gneE22"/>
    </vehicle>
    <vehicle id="-flow-random-route-daa14343-bf98-4a90-a1b1-977fe1dea8b4--2071962830164072561-1-0.1" type="actor-car--3709631737198541191" depart="120.00" departLane="0" departPos="0.23" departSpeed="max" arrivalLane="0" arrivalPos="10.61">
        <route edges="gneE14 gneE15 gneE16 gneE17 gneE18 gneE19 gneE20 gneE21 gneE22 gneE23"/>
    </vehicle>
    <vehicle id="-flow-random-route-e10e5f27-c066-4e02-b0eb-a80f8aa2901e--2071962830164072561-11-0.1" type="actor-car--3709631737198541191" depart="120.00" departLane="0" departPos="3.63" departSpeed="max" arrivalLane="0" arrivalPos="21.38">
        <route edges="gneE25 gneE26 gneE27 gneE28 gneE10 gneE11 gneE12 gneE13 gneE14 -gneE30"/>
    </vehicle>
    <vehicle id="-flow-random-route-e50d5707-f55e-4e95-b184-e00620b7fa65--2071962830164072561-5-0.1" type="actor-car--3709631737198541191" depart="120.00" departLane="0" departPos="7.42" departSpeed="max" arrivalLane="0" arrivalPos="24.60">
        <route edges="-gneE20 -gneE19 -gneE18 -gneE17 -gneE16 -gneE15 -gneE30 -gneE29 gneE10 gneE11"/>
    </vehicle>
    <vehicle id="-flow-random-route-e8bcfdff-f446-4944-848c-6576c147318a--2071962830164072561-20-0.1" type="actor-car--3709631737198541191" depart="120.00" departLane="0" departPos="44.77" departSpeed="max" arrivalLane="0" arrivalPos="2.84">
        <route edges="gneE30 -gneE14 -gneE13 -gneE12 -gneE11 -gneE10 -gneE28 -gneE27 -gneE26 -gneE25"/>
    </vehicle>
    <vehicle id="-flow-random-route-e94798f9-b59b-45b4-bcb8-f559420f0e1a--2071962830164072561-13-0.1" type="actor-car--3709631737198541191" depart="120.00" departLane="0" departPos="38.44" departSpeed="max" arrivalLane="0" arrivalPos="18.59">
        <route edges="gneE30 gneE15 gneE16 gneE17 gneE18 gneE19 gneE20 gneE21 gneE22 gneE23"/>
    </vehicle>
    <vehicle id="-flow-random-route-eb5222c2-9922-4ffc-918c-5dea90997d0b--2071962830164072561-10-0.1" type="actor-car--3709631737198541191" depart="120.00" departLane="0" departPos="25.77" departSpeed="max" arrivalLane="0" arrivalPos="16.55">
        <route edges="-gneE25 -gneE24 -gneE23 -gneE22 -gneE21 -gneE20 -gneE19 -gneE18 -gneE17 -gneE16"/>
    </vehicle>
    <vehicle id="-flow-random-route-fbd63de2-bb7e-40f4-a51d-329676ee67d2--2071962830164072561-6-0.1" type="actor-car--3709631737198541191" depart="120.00" departLane="0" departPos="15.62" departSpeed="max" arrivalLane="0" arrivalPos="7.28">
        <route edges="-gneE21 -gneE20 -gneE19 -gneE18 -gneE17 -gneE16 -gneE15 -gneE14 -gneE13 -gneE12"/>
    </vehicle>
    <vehicle id="-flow-random-route-ff690d17-4d08-4b9f-9ab4-03986407568f--2071962830164072561-17-0.1" type="actor-car--3709631737198541191" depart="120.00" departLane="0" departPos="7.07" departSpeed="max" arrivalLane="0" arrivalPos="1.22">
        <route edges="-gneE14 -gneE13 -gneE12 -gneE11 -gneE10 gneE29 gneE30 gneE15 gneE16 gneE17"/>
    </vehicle>
    <vehicle id="-flow-random-route-03b94caf-1a3e-499f-9657-7af07a6c3fb1--2071962830164072561-21-0.2" type="actor-car--3709631737198541191" depart="240.00" departLane="0" departPos="53.21" departSpeed="max" arrivalLane="0" arrivalPos="27.66">
        <route edges="-gneE29 gneE10 gneE11"/>
    </vehicle>
    <vehicle id="-flow-random-route-19997122-9c8e-4c64-8aa9-6318dcbd59c1--2071962830164072561-23-0.2" type="actor-car--3709631737198541191" depart="240.00" departLane="0" departPos="7.19" departSpeed="max" arrivalLane="0" arrivalPos="19.49">
        <route edges="-gneE25 -gneE24 -gneE23 -gneE22 -gneE21 -gneE20 -gneE19 -gneE18 -gneE17 -gneE16"/>
    </vehicle>
    <vehicle id="-flow-random-route-19bcbbbd-ba9e-487e-a03f-dec54a657de5--2071962830164072561-15-0.2" type="actor-car--3709631737198541191" depart="240.00" departLane="0" departPos="20.40" departSpeed="max" arrivalLane="0" arrivalPos="5.57">
        <route edges="-gneE16 -gneE15 -gneE14 -gneE13 -gneE12 -gneE11 -gneE10 gneE29 gneE30 gneE15"/>
    </vehicle>
    <vehicle id="-flow-random-route-1ce3606d-4e9c-4f95-83d1-680c731d88bf--2071962830164072561-9-0.2" type="actor-car--3709631737198541191" depart="240.00" departLane="0" departPos="17.33" departSpeed="max" arrivalLane="0" arrivalPos="11.54">
        <route edges="gneE26 gneE27 gneE28 gneE29 gneE30 -gneE14 -gneE13 -gneE12 -gneE11 -gneE10"/>
    </vehicle>
    <vehicle id="-flow-random-route-3ea4980e-b7d4-4033-9ef0-66e691c84704--2071962830164072561-7-0.2" type="actor-car--3709631737198541191" depart="240.00" departLane="0" departPos="13.58" departSpeed="max" arrivalLane="0" arrivalPos="23.08">
        <route edges="-gneE14 -gneE13 -gneE12"/>
    </vehicle>
    <vehicle id="-flow-random-route-434e8ab3-d1e7-4264-a636-7db23b4215b7--2071962830164072561-18-0.2" type="actor-car--3709631737198541191" depart="240.00" departLane="0" departPos="12.42" departSpeed="max" arrivalLane="0" arrivalPos="24.52">
        <route edges="gneE14 gneE15 gneE16 gneE17 gneE18 gneE19 gneE20 gneE21 gneE22 gneE23"/>
    </vehicle>
    <vehicle id="-flow-random-route-47e442b9-1ba3-45ac-aeaf-edf354f9d5ee--2071962830164072561-27-0.2" type="actor-car--3709631737198541191" depart="240.00" departLane="0" departPos="39.05" departSpeed="max" arrivalLane="0" arrivalPos="17.30">
        <route edges="gneE24 gneE25 gneE26 gneE27 gneE28 gneE29 gneE30 -gneE14 -gneE13 -gneE12"/>
    </vehicle>
    <vehicle id="-flow-random-route-4c43c3ac-322b-4c24-bcc4-1f538e5346ce--2071962830164072561-8-0.2" type="actor-car--3709631737198541191" depart="240.00" departLane="0" departPos="7.10" departSpeed="max" arrivalLane="0" arrivalPos="8.96">
        <route edges="gneE15 gneE16 gneE17 gneE18 gneE19 gneE20 gneE21 gneE22 gneE23 gneE24"/>
    </vehicle>
    <vehicle id="-flow-random-route-5005db55-42dc-4274-b3c6-911b7eefd143--2071962830164072561-25-0.2" type="actor-car--3709631737198541191" depart="240.00" departLane="0" departPos="8.42" departSpeed="max" arrivalLane="0" arrivalPos="16.34">
        <route edges="-gneE24 -gneE23 -gneE22 -gneE21 -gneE20 -gneE19 -gneE18 -gneE17 -gneE16 -gneE15"/>
    </vehicle>
    <vehicle id="-flow-random-route-57399465-1a52-4d5b-8fef-d993db5b9f09--2071962830164072561-29-0.2" type="actor-car--3709631737198541191" depart="240.00" departLane="0" departPos="17.55" departSpeed="max" arrivalLane="0" arrivalPos="16.57">
        <route edges="-gneE27 -gneE26 -gneE25 -gneE24 -gneE23 -gneE22 -gneE21 -gneE20 -gneE19 -gneE18"/>
    </vehicle>
    <vehicle id="-flow-random-route-5dbfc4a1-c611-48ec-a6ba-638d9bc8a010--2071962830164072561-28-0.2" type="actor-car--3709631737198541191" depart="240.00" departLane="0" departPos="6.49" departSpeed="max" arrivalLane="0" arrivalPos="29.50">
        <route edges="-gneE12 -gneE11 -gneE10 -gneE28 -gneE27 -gneE26 -gneE25 -gneE24 -gneE23 -gneE22"/>
    </vehicle>
    <vehicle id="-flow-random-route-67a40f9f-92f7-43a0-9a6f-76bcdc2b8705--2071962830164072561-24-0.2" type="actor-car--3709631737198541191" depart="240.00" departLane="0" departPos="9.20" departSpeed="max" arrivalLane="0" arrivalPos="33.50">
        <route edges="-gneE14 -gneE13 -gneE12 -gneE11 -gneE10 -gneE28 -gneE27 -gneE26 -gneE25 -gneE24"/>
    </vehicle>
    <vehicle id="-flow-random-route-696306e7-245a-47cf-9525-63e94695252b--2071962830164072561-22-0.2" type="actor-car--3709631737198541191" depart="240.00" departLane="0" departPos="7.65" departSpeed="max" arrivalLane="0" arrivalPos="3.99">
        <route edges="gneE11 gneE12 gneE13"/>
    </vehicle>
    <vehicle id="-flow-random-route-73c92524-8eaa-4de7-9cda-3598c654c5f1--2071962830164072561-2-0.2" type="actor-car--3709631737198541191" depart="240.00" departLane="0" departPos="25.96" departSpeed="max" arrivalLane="0" arrivalPos="25.23">
        <route edges="-gneE21 -gneE20 -gneE19 -gneE18 -gneE17 -gneE16 -gneE15 -gneE30 -gneE29 -gneE28"/>
    </vehicle>
    <vehicle id="-flow-random-route-7dcb07db-19a2-4170-a2b5-de7c0c2a7945--2071962830164072561-0-0.2" type="actor-car--3709631737198541191" depart="240.00" departLane="0" departPos="6.13" departSpeed="max" arrivalLane="0" arrivalPos="43.36">
        <route edges="gneE14 -gneE30 -gneE29 -gneE28 -gneE27 -gneE26 -gneE25 -gneE24 -gneE23 -gneE22"/>
    </vehicle>
    <vehicle id="-flow-random-route-82a10991-bbf0-4eee-96dc-ca1e6bc649c8--2071962830164072561-3-0.2" type="actor-car--3709631737198541191" depart="240.00" departLane="0" departPos="18.06" departSpeed="max" arrivalLane="0" arrivalPos="10.41">
        <route edges="gneE27 gneE28 gneE10"/>
    </vehicle>
    <vehicle id="-flow-random-route-925b1d8e-5515-4b27-aacf-981e67a84d90--2071962830164072561-19-0.2" type="actor-car--3709631737198541191" depart="240.00" departLane="0" departPos="8.46" departSpeed="max" arrivalLane="0" arrivalPos="24.94">
        <route edges="gneE16 gneE17 gneE18 gneE19 gneE20 gneE21 gneE22 gneE23 gneE24 gneE25"/>
    </vehicle>
    <vehicle id="-flow-random-route-995fc335-ee97-495f-9faf-fb4322458455--2071962830164072561-26-0.2" type="actor-car--3709631737198541191" depart="240.00" departLane="0" departPos="4.15" departSpeed="max" arrivalLane="0" arrivalPos="13.35">
        <route edges="-gneE26 -gneE25 -gneE24 -gneE23 -gneE22 -gneE21 -gneE20 -gneE19 -gneE18 -gneE17"/>
    </vehicle>
    <vehicle id="-flow-random-route-a5184865-c02e-4692-b271-126d41d6525a--2071962830164072561-16-0.2" type="actor-car--3709631737198541191" depart="240.00" departLane="0" departPos="24.12" departSpeed="max" arrivalLane="0" arrivalPos="21.73">
        <route edges="-gneE14 -gneE13 -gneE12 -gneE11 -gneE10 gneE29 gneE30 gneE15 gneE16 gneE17"/>
    </vehicle>
    <vehicle id="-flow-random-route-a7c8783e-d67b-4531-a64a-6f230a5c8882--2071962830164072561-14-0.2" type="actor-car--3709631737198541191" depart="240.00" departLane="0" departPos="34.14" departSpeed="max" arrivalLane="0" arrivalPos="36.59">
        <route edges="-gneE23 -gneE22 -gneE21 -gneE20 -gneE19 -gneE18 -gneE17 -gneE16 -gneE15 -gneE30"/>
    </vehicle>
    <vehicle id="-flow-random-route-b530bbee-0b86-4289-80a3-6f65be30fac0--2071962830164072561-4-0.2" type="actor-car--3709631737198541191" depart="240.00" departLane="0" departPos="7.99" departSpeed="max" arrivalLane="0" arrivalPos="2.84">
        <route edges="-gneE22 -gneE21 -gneE20 -gneE19 -gneE18 -gneE17 -gneE16 -gneE15 -gneE30 -gneE29"/>
    </vehicle>
    <vehicle id="-flow-random-route-bcadaa0e-ffe7-44f8-86dd-7ca8e19548b6--2071962830164072561-12-0.2" type="actor-car--3709631737198541191" depart="240.00" departLane="0" departPos="16.45" departSpeed="max" arrivalLane="0" arrivalPos="2.05">
        <route edges="gneE13 gneE14 gneE15 gneE16 gneE17 gneE18 gneE19 gneE20 gneE21 gneE22"/>
    </vehicle>