<?xml version="1.0" encoding="UTF-8"?>

<!-- generated on 2020年09月18日 星期五 23时38分55秒 by Eclipse SUMO netedit Version 1.6.0
<configuration xmlns:xsi="http://www.w3.org/2001/XMLSchema-instance" xsi:noNamespaceSchemaLocation="http://sumo.dlr.de/xsd/netconvertConfiguration.xsd">

    <output>
        <output-file value="/home/xyf/dai/HUAWEI-DAI-TASK1-master/dataset_public/demo1_3/map.net.xml"/>
    </output>

    <processing>
        <offset.disable-normalization value="true"/>
    </processing>

    <junctions>
        <no-turnarounds value="true"/>
    </junctions>

    <report>
        <aggregate-warnings value="5"/>
    </report>

</configuration>
-->

<net version="1.6" junctionCornerDetail="5" limitTurnSpeed="5.50" xmlns:xsi="http://www.w3.org/2001/XMLSchema-instance" xsi:noNamespaceSchemaLocation="http://sumo.dlr.de/xsd/net_file.xsd">

    <location netOffset="0.00,0.00" convBoundary="-100.00,-200.00,300.00,100.00" origBoundary="10000000000.00,10000000000.00,-10000000000.00,-10000000000.00" projParameter="!"/>

    <edge id=":gneJ0_0" function="internal">
        <lane id=":gneJ0_0_0" index="0" speed="12.23" length="13.82" shape="3.98,108.00 0.46,107.68 -2.78,106.71 -5.76,105.10 -8.47,102.85"/>
    </edge>
    <edge id=":gneJ0_1" function="internal">
        <lane id=":gneJ0_1_0" index="0" speed="11.10" length="11.31" shape="3.98,104.80 1.10,104.54 -1.55,103.75 -3.99,102.43 -6.21,100.58"/>
    </edge>
    <edge id=":gneJ0_2" function="internal">
        <lane id=":gneJ0_2_0" index="0" speed="9.84" length="8.80" shape="3.98,101.60 1.74,101.39 -0.32,100.78 -2.22,99.75 -3.94,98.32"/>
    </edge>
    <edge id=":gneJ0_3" function="internal">
        <lane id=":gneJ0_3_0" index="0" speed="4.20" length="1.26" shape="2.85,91.53 3.09,91.74 3.36,91.88 3.66,91.97 3.98,92.00"/>
    </edge>
    <edge id=":gneJ0_4" function="internal">
        <lane id=":gneJ0_4_0" index="0" speed="6.63" length="3.77" shape="0.58,93.79 1.32,94.41 2.13,94.85 3.02,95.11 3.98,95.20"/>
    </edge>
    <edge id=":gneJ0_5" function="internal">
        <lane id=":gneJ0_5_0" index="0" speed="8.39" length="6.28" shape="-1.68,96.06 -0.45,97.08 0.91,97.81 2.38,98.25 3.98,98.40"/>
    </edge>
    <edge id=":gneJ1_0" function="internal">
        <lane id=":gneJ1_0_0" index="0" speed="12.23" length="13.82" shape="208.47,102.85 205.76,105.10 202.78,106.71 199.54,107.68 196.02,108.00"/>
    </edge>
    <edge id=":gneJ1_1" function="internal">
        <lane id=":gneJ1_1_0" index="0" speed="11.10" length="11.31" shape="206.21,100.58 203.99,102.43 201.55,103.75 198.90,104.54 196.02,104.80"/>
    </edge>
    <edge id=":gneJ1_2" function="internal">
        <lane id=":gneJ1_2_0" index="0" speed="9.84" length="8.80" shape="203.94,98.32 202.22,99.75 200.32,100.78 198.26,101.39 196.02,101.60"/>
    </edge>
    <edge id=":gneJ1_3" function="internal">
        <lane id=":gneJ1_3_0" index="0" speed="4.20" length="1.26" shape="196.02,92.00 196.34,91.97 196.64,91.88 196.91,91.74 197.15,91.53"/>
    </edge>
    <edge id=":gneJ1_4" function="internal">
        <lane id=":gneJ1_4_0" index="0" speed="6.63" length="3.77" shape="196.02,95.20 196.98,95.11 197.87,94.85 198.68,94.41 199.42,93.79"/>
    </edge>
    <edge id=":gneJ1_5" function="internal">
        <lane id=":gneJ1_5_0" index="0" speed="8.39" length="6.28" shape="196.02,98.40 197.62,98.25 199.09,97.81 200.45,97.08 201.68,96.06"/>
    </edge>
    <edge id=":gneJ10_0" function="internal">
        <lane id=":gneJ10_0_0" index="0" speed="12.23" length="13.82" shape="-102.85,8.47 -105.10,5.76 -106.71,2.78 -107.68,-0.46 -108.00,-3.98"/>
    </edge>
    <edge id=":gneJ10_1" function="internal">
        <lane id=":gneJ10_1_0" index="0" speed="11.10" length="11.31" shape="-100.58,6.21 -102.43,3.99 -103.75,1.55 -104.54,-1.10 -104.80,-3.98"/>
    </edge>
    <edge id=":gneJ10_2" function="internal">
        <lane id=":gneJ10_2_0" index="0" speed="9.84" length="8.80" shape="-98.32,3.94 -99.75,2.22 -100.78,0.32 -101.39,-1.74 -101.60,-3.98"/>
    </edge>
    <edge id=":gneJ10_3" function="internal">
        <lane id=":gneJ10_3_0" index="0" speed="4.20" length="1.26" shape="-92.00,-3.98 -91.97,-3.66 -91.88,-3.36 -91.74,-3.09 -91.53,-2.85"/>
    </edge>
    <edge id=":gneJ10_4" function="internal">
        <lane id=":gneJ10_4_0" index="0" speed="6.63" length="3.77" shape="-95.20,-3.98 -95.11,-3.02 -94.85,-2.13 -94.41,-1.32 -93.79,-0.58"/>
    </edge>
    <edge id=":gneJ10_5" function="internal">
        <lane id=":gneJ10_5_0" index="0" speed="8.39" length="6.28" shape="-98.40,-3.98 -98.25,-2.38 -97.81,-0.91 -97.08,0.45 -96.06,1.68"/>
    </edge>
    <edge id=":gneJ2_0" function="internal">
        <lane id=":gneJ2_0_0" index="0" speed="12.23" length="13.82" shape="308.00,-3.98 307.68,-0.46 306.71,2.78 305.10,5.76 302.85,8.47"/>
    </edge>
    <edge id=":gneJ2_1" function="internal">
        <lane id=":gneJ2_1_0" index="0" speed="11.10" length="11.31" shape="304.80,-3.98 304.54,-1.10 303.75,1.55 302.43,3.99 300.58,6.21"/>
    </edge>
    <edge id=":gneJ2_2" function="internal">
        <lane id=":gneJ2_2_0" index="0" speed="9.84" length="8.80" shape="301.60,-3.98 301.39,-1.74 300.78,0.32 299.75,2.22 298.32,3.94"/>
    </edge>
    <edge id=":gneJ2_3" function="internal">
        <lane id=":gneJ2_3_0" index="0" speed="4.20" length="1.26" shape="291.53,-2.85 291.74,-3.09 291.88,-3.36 291.97,-3.66 292.00,-3.98"/>
    </edge>
    <edge id=":gneJ2_4" function="internal">
        <lane id=":gneJ2_4_0" index="0" speed="6.63" length="3.77" shape="293.79,-0.58 294.41,-1.32 294.85,-2.13 295.11,-3.02 295.20,-3.98"/>
    </edge>
    <edge id=":gneJ2_5" function="internal">
        <lane id=":gneJ2_5_0" index="0" speed="8.39" length="6.28" shape="296.06,1.68 297.08,0.45 297.81,-0.91 298.25,-2.38 298.40,-3.98"/>
    </edge>
    <edge id=":gneJ3_0" function="internal">
        <lane id=":gneJ3_0_0" index="0" speed="4.20" length="1.26" shape="292.00,-96.02 291.97,-96.34 291.88,-96.64 291.74,-96.91 291.53,-97.15"/>
    </edge>
    <edge id=":gneJ3_1" function="internal">
        <lane id=":gneJ3_1_0" index="0" speed="6.63" length="3.77" shape="295.20,-96.02 295.11,-96.98 294.85,-97.87 294.41,-98.68 293.79,-99.42"/>
    </edge>
    <edge id=":gneJ3_2" function="internal">
        <lane id=":gneJ3_2_0" index="0" speed="8.39" length="6.28" shape="298.40,-96.02 298.25,-97.62 297.81,-99.09 297.08,-100.45 296.06,-101.68"/>
    </edge>
    <edge id=":gneJ3_3" function="internal">
        <lane id=":gneJ3_3_0" index="0" speed="12.23" length="13.82" shape="302.85,-108.47 305.10,-105.76 306.71,-102.78 307.68,-99.54 308.00,-96.02"/>
    </edge>
    <edge id=":gneJ3_4" function="internal">
        <lane id=":gneJ3_4_0" index="0" speed="11.10" length="11.31" shape="300.58,-106.21 302.43,-103.99 303.75,-101.55 304.54,-98.90 304.80,-96.02"/>
    </edge>
    <edge id=":gneJ3_5" function="internal">
        <lane id=":gneJ3_5_0" index="0" speed="9.84" length="8.80" shape="298.32,-103.94 299.75,-102.22 300.78,-100.32 301.39,-98.26 301.60,-96.02"/>
    </edge>
    <edge id=":gneJ4_0" function="internal">
        <lane id=":gneJ4_0_0" index="0" speed="4.20" length="1.26" shape="197.15,-191.53 196.91,-191.74 196.64,-191.88 196.34,-191.97 196.02,-192.00"/>
    </edge>
    <edge id=":gneJ4_1" function="internal">
        <lane id=":gneJ4_1_0" index="0" speed="6.63" length="3.77" shape="199.42,-193.79 198.68,-194.41 197.87,-194.85 196.98,-195.11 196.02,-195.20"/>
    </edge>
    <edge id=":gneJ4_2" function="internal">
        <lane id=":gneJ4_2_0" index="0" speed="8.39" length="6.28" shape="201.68,-196.06 200.45,-197.08 199.09,-197.81 197.62,-198.25 196.02,-198.40"/>
    </edge>
    <edge id=":gneJ4_3" function="internal">
        <lane id=":gneJ4_3_0" index="0" speed="12.23" length="13.82" shape="196.02,-208.00 199.54,-207.68 202.78,-206.71 205.76,-205.10 208.47,-202.85"/>
    </edge>
    <edge id=":gneJ4_4" function="internal">
        <lane id=":gneJ4_4_0" index="0" speed="11.10" length="11.31" shape="196.02,-204.80 198.90,-204.54 201.55,-203.75 203.99,-202.43 206.21,-200.58"/>
    </edge>
    <edge id=":gneJ4_5" function="internal">
        <lane id=":gneJ4_5_0" index="0" speed="9.84" length="8.80" shape="196.02,-201.60 198.26,-201.39 200.32,-200.78 202.22,-199.75 203.94,-198.32"/>
    </edge>
    <edge id=":gneJ8_0" function="internal">
        <lane id=":gneJ8_0_0" index="0" speed="4.20" length="1.26" shape="3.98,-192.00 3.66,-191.97 3.36,-191.88 3.09,-191.74 2.85,-191.53"/>
    </edge>
    <edge id=":gneJ8_1" function="internal">
        <lane id=":gneJ8_1_0" index="0" speed="6.63" length="3.77" shape="3.98,-195.20 3.02,-195.11 2.13,-194.85 1.32,-194.41 0.58,-193.79"/>
    </edge>
    <edge id=":gneJ8_2" function="internal">
        <lane id=":gneJ8_2_0" index="0" speed="8.39" length="6.28" shape="3.98,-198.40 2.38,-198.25 0.91,-197.81 -0.45,-197.08 -1.68,-196.06"/>
    </edge>
    <edge id=":gneJ8_3" function="internal">
        <lane id=":gneJ8_3_0" index="0" speed="12.23" length="13.82" shape="-8.47,-202.85 -5.76,-205.10 -2.78,-206.71 0.46,-207.68 3.98,-208.00"/>
    </edge>
    <edge id=":gneJ8_4" function="internal">
        <lane id=":gneJ8_4_0" index="0" speed="11.10" length="11.31" shape="-6.21,-200.58 -3.99,-202.43 -1.55,-203.75 1.10,-204.54 3.98,-204.80"/>
    </edge>
    <edge id=":gneJ8_5" function="internal">
        <lane id=":gneJ8_5_0" index="0" speed="9.84" length="8.80" shape="-3.94,-198.32 -2.22,-199.75 -0.32,-200.78 1.74,-201.39 3.98,-201.60"/>
    </edge>
    <edge id=":gneJ9_0" function="internal">
        <lane id=":gneJ9_0_0" index="0" speed="12.23" length="13.82" shape="-108.00,-96.02 -107.68,-99.54 -106.71,-102.78 -105.10,-105.76 -102.85,-108.47"/>
    </edge>
    <edge id=":gneJ9_1" function="internal">
        <lane id=":gneJ9_1_0" index="0" speed="11.10" length="11.31" shape="-104.80,-96.02 -104.54,-98.90 -103.75,-101.55 -102.43,-103.99 -100.58,-106.21"/>
    </edge>
    <edge id=":gneJ9_2" function="internal">
        <lane id=":gneJ9_2_0" index="0" speed="9.84" length="8.80" shape="-101.60,-96.02 -101.39,-98.26 -100.78,-100.32 -99.75,-102.22 -98.32,-103.94"/>
    </edge>
    <edge id=":gneJ9_3" function="internal">
        <lane id=":gneJ9_3_0" index="0" speed="4.20" length="1.26" shape="-91.53,-97.15 -91.74,-96.91 -91.88,-96.64 -91.97,-96.34 -92.00,-96.02"/>
    </edge>
    <edge id=":gneJ9_4" function="internal">
        <lane id=":gneJ9_4_0" index="0" speed="6.63" length="3.77" shape="-93.79,-99.42 -94.41,-98.68 -94.85,-97.87 -95.11,-96.98 -95.20,-96.02"/>
    </edge>
    <edge id=":gneJ9_5" function="internal">
        <lane id=":gneJ9_5_0" index="0" speed="8.39" length="6.28" shape="-96.06,-101.68 -97.08,-100.45 -97.81,-99.09 -98.25,-97.62 -98.40,-96.02"/>
    </edge>

    <edge id="-gneE0" from="gneJ1" to="gneJ0" priority="-1">
        <lane id="-gneE0_0" index="0" speed="13.89" length="192.05" shape="196.02,108.00 3.98,108.00"/>
        <lane id="-gneE0_1" index="1" speed="13.89" length="192.05" shape="196.02,104.80 3.98,104.80"/>
        <lane id="-gneE0_2" index="2" speed="13.89" length="192.05" shape="196.02,101.60 3.98,101.60"/>
    </edge>
    <edge id="-gneE1" from="gneJ3" to="gneJ2" priority="-1">
        <lane id="-gneE1_0" index="0" speed="13.89" length="92.05" shape="308.00,-96.02 308.00,-3.98"/>
        <lane id="-gneE1_1" index="1" speed="13.89" length="92.05" shape="304.80,-96.02 304.80,-3.98"/>
        <lane id="-gneE1_2" index="2" speed="13.89" length="92.05" shape="301.60,-96.02 301.60,-3.98"/>
    </edge>
    <edge id="-gneE10" from="gneJ0" to="gneJ10" priority="-1">
        <lane id="-gneE10_0" index="0" speed="13.89" length="133.47" shape="-8.47,102.85 -102.85,8.47"/>
        <lane id="-gneE10_1" index="1" speed="13.89" length="133.47" shape="-6.21,100.58 -100.58,6.21"/>
        <lane id="-gneE10_2" index="2" speed="13.89" length="133.47" shape="-3.94,98.32 -98.32,3.94"/>
    </edge>
    <edge id="-gneE2" from="gneJ2" to="gneJ1" priority="-1">
        <lane id="-gneE2_0" index="0" speed="13.89" length="133.47" shape="302.85,8.47 208.47,102.85"/>
        <lane id="-gneE2_1" index="1" speed="13.89" length="133.47" shape="300.58,6.21 206.21,100.58"/>
        <lane id="-gneE2_2" index="2" speed="13.89" length="133.47" shape="298.32,3.94 203.94,98.32"/>
    </edge>
    <edge id="-gneE3" from="gneJ4" to="gneJ3" priority="-1">
        <lane id="-gneE3_0" index="0" speed="13.89" length="133.47" shape="208.47,-202.85 302.85,-108.47"/>
        <lane id="-gneE3_1" index="1" speed="13.89" length="133.47" shape="206.21,-200.58 300.58,-106.21"/>
        <lane id="-gneE3_2" index="2" speed="13.89" length="133.47" shape="203.94,-198.32 298.32,-103.94"/>
    </edge>
    <edge id="-gneE7" from="gneJ8" to="gneJ4" priority="-1">
        <lane id="-gneE7_0" index="0" speed="13.89" length="192.05" shape="3.98,-208.00 196.02,-208.00"/>
        <lane id="-gneE7_1" index="1" speed="13.89" length="192.05" shape="3.98,-204.80 196.02,-204.80"/>
        <lane id="-gneE7_2" index="2" speed="13.89" length="192.05" shape="3.98,-201.60 196.02,-201.60"/>
    </edge>
    <edge id="-gneE8" from="gneJ9" to="gneJ8" priority="-1">
        <lane id="-gneE8_0" index="0" speed="13.89" length="133.47" shape="-102.85,-108.47 -8.47,-202.85"/>
        <lane id="-gneE8_1" index="1" speed="13.89" length="133.47" shape="-100.58,-106.21 -6.21,-200.58"/>
        <lane id="-gneE8_2" index="2" speed="13.89" length="133.47" shape="-98.32,-103.94 -3.94,-198.32"/>
    </edge>
    <edge id="-gneE9" from="gneJ10" to="gneJ9" priority="-1">
        <lane id="-gneE9_0" index="0" speed="13.89" length="92.05" shape="-108.00,-3.98 -108.00,-96.02"/>
        <lane id="-gneE9_1" index="1" speed="13.89" length="92.05" shape="-104.80,-3.98 -104.80,-96.02"/>
        <lane id="-gneE9_2" index="2" speed="13.89" length="92.05" shape="-101.60,-3.98 -101.60,-96.02"/>
    </edge>
    <edge id="gneE0" from="gneJ0" to="gneJ1" priority="-1">
        <lane id="gneE0_0" index="0" speed="13.89" length="192.05" shape="3.98,92.00 196.02,92.00"/>
        <lane id="gneE0_1" index="1" speed="13.89" length="192.05" shape="3.98,95.20 196.02,95.20"/>
        <lane id="gneE0_2" index="2" speed="13.89" length="192.05" shape="3.98,98.40 196.02,98.40"/>
    </edge>
    <edge id="gneE1" from="gneJ2" to="gneJ3" priority="-1">
        <lane id="gneE1_0" index="0" speed="13.89" length="92.05" shape="292.00,-3.98 292.00,-96.02"/>
        <lane id="gneE1_1" index="1" speed="13.89" length="92.05" shape="295.20,-3.98 295.20,-96.02"/>
        <lane id="gneE1_2" index="2" speed="13.89" length="92.05" shape="298.40,-3.98 298.40,-96.02"/>
    </edge>
    <edge id="gneE10" from="gneJ10" to="gneJ0" priority="-1">
        <lane id="gneE10_0" index="0" speed="13.89" length="133.47" shape="-91.53,-2.85 2.85,91.53"/>
        <lane id="gneE10_1" index="1" speed="13.89" length="133.47" shape="-93.79,-0.58 0.58,93.79"/>
        <lane id="gneE10_2" index="2" speed="13.89" length="133.47" shape="-96.06,1.68 -1.68,96.06"/>
    </edge>
    <edge id="gneE2" from="gneJ1" to="gneJ2" priority="-1">
        <lane id="gneE2_0" index="0" speed="13.89" length="133.47" shape="197.15,91.53 291.53,-2.85"/>
        <lane id="gneE2_1" index="1" speed="13.89" length="133.47" shape="199.42,93.79 293.79,-0.58"/>
        <lane id="gneE2_2" index="2" speed="13.89" length="133.47" shape="201.68,96.06 296.06,1.68"/>
    </edge>
    <edge id="gneE3" from="gneJ3" to="gneJ4" priority="-1">
        <lane id="gneE3_0" index="0" speed="13.89" length="133.47" shape="291.53,-97.15 197.15,-191.53"/>
        <lane id="gneE3_1" index="1" speed="13.89" length="133.47" shape="293.79,-99.42 199.42,-193.79"/>
        <lane id="gneE3_2" index="2" speed="13.89" length="133.47" shape="296.06,-101.68 201.68,-196.06"/>
    </edge>
    <edge id="gneE7" from="gneJ4" to="gneJ8" priority="-1">
        <lane id="gneE7_0" index="0" speed="13.89" length="192.05" shape="196.02,-192.00 3.98,-192.00"/>
        <lane id="gneE7_1" index="1" speed="13.89" length="192.05" shape="196.02,-195.20 3.98,-195.20"/>
        <lane id="gneE7_2" index="2" speed="13.89" length="192.05" shape="196.02,-198.40 3.98,-198.40"/>
    </edge>
    <edge id="gneE8" from="gneJ8" to="gneJ9" priority="-1">
        <lane id="gneE8_0" index="0" speed="13.89" length="133.47" shape="2.85,-191.53 -91.53,-97.15"/>
        <lane id="gneE8_1" index="1" speed="13.89" length="133.47" shape="0.58,-193.79 -93.79,-99.42"/>
        <lane id="gneE8_2" index="2" speed="13.89" length="133.47" shape="-1.68,-196.06 -96.06,-101.68"/>
    </edge>
    <edge id="gneE9" from="gneJ9" to="gneJ10" priority="-1">
        <lane id="gneE9_0" index="0" speed="13.89" length="92.05" shape="-92.00,-96.02 -92.00,-3.98"/>
        <lane id="gneE9_1" index="1" speed="13.89" length="92.05" shape="-95.20,-96.02 -95.20,-3.98"/>
        <lane id="gneE9_2" index="2" speed="13.89" length="92.05" shape="-98.40,-96.02 -98.40,-3.98"/>
    </edge>

    <junction id="gneJ0" type="priority" x="0.00" y="100.00" incLanes="-gneE0_0 -gneE0_1 -gneE0_2 gneE10_0 gneE10_1 gneE10_2" intLanes=":gneJ0_0_0 :gneJ0_1_0 :gneJ0_2_0 :gneJ0_3_0 :gneJ0_4_0 :gneJ0_5_0" shape="3.98,109.60 3.98,90.40 -9.60,103.98 -7.66,105.69 -5.59,107.10 -3.39,108.19 -1.07,108.98 1.39,109.44">
        <request index="0" response="000000" foes="000000" cont="0"/>
        <request index="1" response="000000" foes="000000" cont="0"/>
        <request index="2" response="000000" foes="000000" cont="0"/>
        <request index="3" response="000000" foes="000000" cont="0"/>
        <request index="4" response="000000" foes="000000" cont="0"/>
        <request index="5" response="000000" foes="000000" cont="0"/>
    </junction>
    <junction id="gneJ1" type="priority" x="200.00" y="100.00" incLanes="-gneE2_0 -gneE2_1 -gneE2_2 gneE0_0 gneE0_1 gneE0_2" intLanes=":gneJ1_0_0 :gneJ1_1_0 :gneJ1_2_0 :gneJ1_3_0 :gneJ1_4_0 :gneJ1_5_0" shape="209.60,103.98 196.02,90.40 196.02,109.60 198.61,109.44 201.07,108.98 203.39,108.19 205.59,107.10 207.66,105.69">
        <request index="0" response="000000" foes="000000" cont="0"/>
        <request index="1" response="000000" foes="000000" cont="0"/>
        <request index="2" response="000000" foes="000000" cont="0"/>
        <request index="3" response="000000" foes="000000" cont="0"/>
        <request index="4" response="000000" foes="000000" cont="0"/>
        <request index="5" response="000000" foes="000000" cont="0"/>
    </junction>
    <junction id="gneJ10" type="priority" x="-100.00" y="0.00" incLanes="-gneE10_0 -gneE10_1 -gneE10_2 gneE9_0 gneE9_1 gneE9_2" intLanes=":gneJ10_0_0 :gneJ10_1_0 :gneJ10_2_0 :gneJ10_3_0 :gneJ10_4_0 :gneJ10_5_0" shape="-103.98,9.60 -90.40,-3.98 -109.60,-3.98 -109.44,-1.39 -108.98,1.07 -108.19,3.39 -107.10,5.59 -105.69,7.66">
        <request index="0" response="000000" foes="000000" cont="0"/>
        <request index="1" response="000000" foes="000000" cont="0"/>
        <request index="2" response="000000" foes="000000" cont="0"/>
        <request index="3" response="000000" foes="000000" cont="0"/>
        <request index="4" response="000000" foes="000000" cont="0"/>
        <request index="5" response="000000" foes="000000" cont="0"/>
    </junction>
    <junction id="gneJ2" type="priority" x="300.00" y="0.00" incLanes="-gneE1_0 -gneE1_1 -gneE1_2 gneE2_0 gneE2_1 gneE2_2" intLanes=":gneJ2_0_0 :gneJ2_1_0 :gneJ2_2_0 :gneJ2_3_0 :gneJ2_4_0 :gneJ2_5_0" shape="309.60,-3.98 290.40,-3.98 303.98,9.60 305.69,7.66 307.10,5.59 308.19,3.39 308.98,1.07 309.44,-1.39">
        <request index="0" response="000000" foes="000000" cont="0"/>
        <request index="1" response="000000" foes="000000" cont="0"/>
        <request index="2" response="000000" foes="000000" cont="0"/>
        <request index="3" response="000000" foes="000000" cont="0"/>
        <request index="4" response="000000" foes="000000" cont="0"/>
        <request index="5" response="000000" foes="000000" cont="0"/>
    </junction>
    <junction id="gneJ3" type="priority" x="300.00" y="-100.00" incLanes="gneE1_0 gneE1_1 gneE1_2 -gneE3_0 -gneE3_1 -gneE3_2" intLanes=":gneJ3_0_0 :gneJ3_1_0 :gneJ3_2_0 :gneJ3_3_0 :gneJ3_4_0 :gneJ3_5_0" shape="290.40,-96.02 309.60,-96.02 309.44,-98.61 308.98,-101.07 308.19,-103.39 307.10,-105.59 305.69,-107.66 303.98,-109.60">
        <request index="0" response="000000" foes="000000" cont="0"/>
        <request index="1" response="000000" foes="000000" cont="0"/>
        <request index="2" response="000000" foes="000000" cont="0"/>
        <request index="3" response="000000" foes="000000" cont="0"/>
        <request index="4" response="000000" foes="000000" cont="0"/>
        <request index="5" response="000000" foes="000000" cont="0"/>
    </junction>
    <junction id="gneJ4" type="priority" x="200.00" y="-200.00" incLanes="gneE3_0 gneE3_1 gneE3_2 -gneE7_0 -gneE7_1 -gneE7_2" intLanes=":gneJ4_0_0 :gneJ4_1_0 :gneJ4_2_0 :gneJ4_3_0 :gneJ4_4_0 :gneJ4_5_0" shape="196.02,-190.40 209.60,-203.98 207.66,-205.69 205.59,-207.10 203.39,-208.19 201.07,-208.98 198.61,-209.44 196.02,-209.60">
        <request index="0" response="000000" foes="000000" cont="0"/>
        <request index="1" response="000000" foes="000000" cont="0"/>
        <request index="2" response="000000" foes="000000" cont="0"/>
        <request index="3" response="000000" foes="000000" cont="0"/>
        <request index="4" response="000000" foes="000000" cont="0"/>
        <request index="5" response="000000" foes="000000" cont="0"/>
    </junction>
    <junction id="gneJ8" type="priority" x="0.00" y="-200.00" incLanes="gneE7_0 gneE7_1 gneE7_2 -gneE8_0 -gneE8_1 -gneE8_2" intLanes=":gneJ8_0_0 :gneJ8_1_0 :gneJ8_2_0 :gneJ8_3_0 :gneJ8_4_0 :gneJ8_5_0" shape="3.98,-190.40 3.98,-209.60 1.39,-209.44 -1.07,-208.98 -3.39,-208.19 -5.59,-207.10 -7.66,-205.69 -9.60,-203.98">
        <request index="0" response="000000" foes="000000" cont="0"/>
        <request index="1" response="000000" foes="000000" cont="0"/>
        <request index="2" response="000000" foes="000000" cont="0"/>
        <request index="3" response="000000" foes="000000" cont="0"/>
        <request index="4" response="000000" foes="000000" cont="0"/>
        <request index="5" response="000000" foes="000000" cont="0"/>
    </junction>
    <junction id="gneJ9" type="priority" x="-100.00" y="-100.00" incLanes="-gneE9_0 -gneE9_1 -gneE9_2 gneE8_0 gneE8_1 gneE8_2" intLanes=":gneJ9_0_0 :gneJ9_1_0 :gneJ9_2_0 :gneJ9_3_0 :gneJ9_4_0 :gneJ9_5_0" shape="-109.60,-96.02 -90.40,-96.02 -103.98,-109.60 -105.69,-107.66 -107.10,-105.59 -108.19,-103.39 -108.98,-101.07 -109.44,-98.61">
        <request index="0" response="000000" foes="000000" cont="0"/>
        <request index="1" response="000000" foes="000000" cont="0"/>
        <request index="2" response="000000" foes="000000" cont="0"/>
        <request index="3" response="000000" foes="000000" cont="0"/>
        <request index="4" response="000000" foes="000000" cont="0"/>
        <request index="5" response="000000" foes="000000" cont="0"/>
    </junction>

    <connection from="-gneE0" to="-gneE10" fromLane="0" toLane="0" via=":gneJ0_0_0" dir="l" state="M"/>
    <connection from="-gneE0" to="-gneE10" fromLane="1" toLane="1" via=":gneJ0_1_0" dir="l" state="M"/>
    <connection from="-gneE0" to="-gneE10" fromLane="2" toLane="2" via=":gneJ0_2_0" dir="l" state="M"/>
    <connection from="-gneE1" to="-gneE2" fromLane="0" toLane="0" via=":gneJ2_0_0" dir="l" state="M"/>
    <connection from="-gneE1" to="-gneE2" fromLane="1" toLane="1" via=":gneJ2_1_0" dir="l" state="M"/>
    <connection from="-gneE1" to="-gneE2" fromLane="2" toLane="2" via=":gneJ2_2_0" dir="l" state="M"/>
    <connection from="-gneE10" to="-gneE9" fromLane="0" toLane="0" via=":gneJ10_0_0" dir="l" state="M"/>
    <connection from="-gneE10" to="-gneE9" fromLane="1" toLane="1" via=":gneJ10_1_0" dir="l" state="M"/>
    <connection from="-gneE10" to="-gneE9" fromLane="2" toLane="2" via=":gneJ10_2_0" dir="l" state="M"/>
    <connection from="-gneE2" to="-gneE0" fromLane="0" toLane="0" via=":gneJ1_0_0" dir="l" state="M"/>
    <connection from="-gneE2" to="-gneE0" fromLane="1" toLane="1" via=":gneJ1_1_0" dir="l" state="M"/>
    <connection from="-gneE2" to="-gneE0" fromLane="2" toLane="2" via=":gneJ1_2_0" dir="l" state="M"/>
    <connection from="-gneE3" to="-gneE1" fromLane="0" toLane="0" via=":gneJ3_3_0" dir="l" state="M"/>
    <connection from="-gneE3" to="-gneE1" fromLane="1" toLane="1" via=":gneJ3_4_0" dir="l" state="M"/>
    <connection from="-gneE3" to="-gneE1" fromLane="2" toLane="2" via=":gneJ3_5_0" dir="l" state="M"/>
    <connection from="-gneE7" to="-gneE3" fromLane="0" toLane="0" via=":gneJ4_3_0" dir="l" state="M"/>
    <connection from="-gneE7" to="-gneE3" fromLane="1" toLane="1" via=":gneJ4_4_0" dir="l" state="M"/>
    <connection from="-gneE7" to="-gneE3" fromLane="2" toLane="2" via=":gneJ4_5_0" dir="l" state="M"/>
    <connection from="-gneE8" to="-gneE7" fromLane="0" toLane="0" via=":gneJ8_3_0" dir="l" state="M"/>
    <connection from="-gneE8" to="-gneE7" fromLane="1" toLane="1" via=":gneJ8_4_0" dir="l" state="M"/>
    <connection from="-gneE8" to="-gneE7" fromLane="2" toLane="2" via=":gneJ8_5_0" dir="l" state="M"/>
    <connection from="-gneE9" to="-gneE8" fromLane="0" toLane="0" via=":gneJ9_0_0" dir="l" state="M"/>
    <connection from="-gneE9" to="-gneE8" fromLane="1" toLane="1" via=":gneJ9_1_0" dir="l" state="M"/>
    <connection from="-gneE9" to="-gneE8" fromLane="2" toLane="2" via=":gneJ9_2_0" dir="l" state="M"/>
    <connection from="gneE0" to="gneE2" fromLane="0" toLane="0" via=":gneJ1_3_0" dir="r" state="M"/>
    <connection from="gneE0" to="gneE2" fromLane="1" toLane="1" via=":gneJ1_4_0" dir="r" state="M"/>
    <connection from="gneE0" to="gneE2" fromLane="2" toLane="2" via=":gneJ1_5_0" dir="r" state="M"/>
    <connection from="gneE1" to="gneE3" fromLane="0" toLane="0" via=":gneJ3_0_0" dir="r" state="M"/>
    <connection from="gneE1" to="gneE3" fromLane="1" toLane="1" via=":gneJ3_1_0" dir="r" state="M"/>
    <connection from="gneE1" to="gneE3" fromLane="2" toLane="2" via=":gneJ3_2_0" dir="r" state="M"/>
    <connection from="gneE10" to="gneE0" fromLane="0" toLane="0" via=":gneJ0_3_0" dir="r" state="M"/>
    <connection from="gneE10" to="gneE0" fromLane="1" toLane="1" via=":gneJ0_4_0" dir="r" state="M"/>
    <connection from="gneE10" to="gneE0" fromLane="2" toLane="2" via=":gneJ0_5_0" dir="r" state="M"/>
    <connection from="gneE2" to="gneE1" fromLane="0" toLane="0" via=":gneJ2_3_0" dir="r" state="M"/>
    <connection from="gneE2" to="gneE1" fromLane="1" toLane="1" via=":gneJ2_4_0" dir="r" state="M"/>
    <connection from="gneE2" to="gneE1" fromLane="2" toLane="2" via=":gneJ2_5_0" dir="r" state="M"/>
    <connection from="gneE3" to="gneE7" fromLane="0" toLane="0" via=":gneJ4_0_0" dir="r" state="M"/>
    <connection from="gneE3" to="gneE7" fromLane="1" toLane="1" via=":gneJ4_1_0" dir="r" state="M"/>
    <connection from="gneE3" to="gneE7" fromLane="2" toLane="2" via=":gneJ4_2_0" dir="r" state="M"/>
    <connection from="gneE7" to="gneE8" fromLane="0" toLane="0" via=":gneJ8_0_0" dir="r" state="M"/>
    <connection from="gneE7" to="gneE8" fromLane="1" toLane="1" via=":gneJ8_1_0" dir="r" state="M"/>
    <connection from="gneE7" to="gneE8" fromLane="2" toLane="2" via=":gneJ8_2_0" dir="r" state="M"/>
    <connection from="gneE8" to="gneE9" fromLane="0" toLane="0" via=":gneJ9_3_0" dir="r" state="M"/>
    <connection from="gneE8" to="gneE9" fromLane="1" toLane="1" via=":gneJ9_4_0" dir="r" state="M"/>
    <connection from="gneE8" to="gneE9" fromLane="2" toLane="2" via=":gneJ9_5_0" dir="r" state="M"/>
    <connection from="gneE9" to="gneE10" fromLane="0" toLane="0" via=":gneJ10_3_0" dir="r" state="M"/>
    <connection from="gneE9" to="gneE10" fromLane="1" toLane="1" via=":gneJ10_4_0" dir="r" state="M"/>
    <connection from="gneE9" to="gneE10" fromLane="2" toLane="2" via=":gneJ10_5_0" dir="r" state="M"/>

    <connection from=":gneJ0_0" to="-gneE10" fromLane="0" toLane="0" dir="l" state="M"/>
    <connection from=":gneJ0_1" to="-gneE10" fromLane="0" toLane="1" dir="l" state="M"/>
    <connection from=":gneJ0_2" to="-gneE10" fromLane="0" toLane="2" dir="l" state="M"/>
    <connection from=":gneJ0_3" to="gneE0" fromLane="0" toLane="0" dir="r" state="M"/>
    <connection from=":gneJ0_4" to="gneE0" fromLane="0" toLane="1" dir="r" state="M"/>
    <connection from=":gneJ0_5" to="gneE0" fromLane="0" toLane="2" dir="r" state="M"/>
    <connection from=":gneJ1_0" to="-gneE0" fromLane="0" toLane="0" dir="l" state="M"/>
    <connection from=":gneJ1_1" to="-gneE0" fromLane="0" toLane="1" dir="l" state="M"/>
    <connection from=":gneJ1_2" to="-gneE0" fromLane="0" toLane="2" dir="l" state="M"/>
    <connection from=":gneJ1_3" to="gneE2" fromLane="0" toLane="0" dir="r" state="M"/>
    <connection from=":gneJ1_4" to="gneE2" fromLane="0" toLane="1" dir="r" state="M"/>
    <connection from=":gneJ1_5" to="gneE2" fromLane="0" toLane="2" dir="r" state="M"/>
    <connection from=":gneJ10_0" to="-gneE9" fromLane="0" toLane="0" dir="l" state="M"/>
    <connection from=":gneJ10_1" to="-gneE9" fromLane="0" toLane="1" dir="l" state="M"/>
    <connection from=":gneJ10_2" to="-gneE9" fromLane="0" toLane="2" dir="l" state="M"/>
    <connection from=":gneJ10_3" to="gneE10" fromLane="0" toLane="0" dir="r" state="M"/>
    <connection from=":gneJ10_4" to="gneE10" fromLane="0" toLane="1" dir="r" state="M"/>
    <connection from=":gneJ10_5" to="gneE10" fromLane="0" toLane="2" dir="r" state="M"/>
    <connection from=":gneJ2_0" to="-gneE2" fromLane="0" toLane="0" dir="l" state="M"/>
    <connection from=":gneJ2_1" to="-gneE2" fromLane="0" toLane="1" dir="l" state="M"/>
    <connection from=":gneJ2_2" to="-gneE2" fromLane="0" toLane="2" dir="l" state="M"/>
    <connection from=":gneJ2_3" to="gneE1" fromLane="0" toLane="0" dir="r" state="M"/>
    <connection from=":gneJ2_4" to="gneE1" fromLane="0" toLane="1" dir="r" state="M"/>