<?xml version="1.0" encoding="UTF-8"?>

<!-- generated on Fri Sep 18 09:05:39 2020 by Eclipse SUMO duarouter Version 1.6.0
<configuration xmlns:xsi="http://www.w3.org/2001/XMLSchema-instance" xsi:noNamespaceSchemaLocation="http://sumo.dlr.de/xsd/duarouterConfiguration.xsd">

    <input>
        <net-file value="demo1_3_simple/map.net.xml"/>
        <route-files value="/tmp/tmpnd543xsq/trips.trips.xml"/>
    </input>

    <output>
        <output-file value="demo1_3_simple/traffic/30_patient_car.rou.xml"/>
        <alternatives-output value="demo1_3_simple/traffic/30_patient_car.rou.alt.xml"/>
    </output>

    <processing>
        <unsorted-input value="true"/>
        <repair value="true"/>
    </processing>

    <report>
        <error-log value="/tmp/smarts/_duarouter_routing/traffic/30_patient_car.log"/>
        <no-step-log value="true"/>
    </report>

    <random_number>
        <seed value="42"/>
    </random_number>

</configuration>
-->

<routes xmlns:xsi="http://www.w3.org/2001/XMLSchema-instance" xsi:noNamespaceSchemaLocation="http://sumo.dlr.de/xsd/routes_file.xsd">
    <vType id="actor-car--4921307837344425854" minGap="2.50" speedFactor="normc(0.50,0.20,0.20,2.00)" vClass="passenger" impatience="0.50" lcCooperative="0.5" lcImpatience="0" jmDriveAfterYellowTime="1.0" accel="2.6" decel="4.5" sigma="0.5"/>
    <vehicle id="-flow-random-route-0e9a83b4-49b9-4b0a-9578-7d613510b5ba-5898071096805091455-26-0.0" type="actor-car--4921307837344425854" depart="0.00" departLane="1" departPos="38.04" departSpeed="max" arrivalLane="1" arrivalPos="76.75">
        <route edges="-gneE10 -gneE9"/>
    </vehicle>
    <vehicle id="-flow-random-route-13e5b37d-24f2-4329-a179-b371fd837718-5898071096805091455-12-0.0" type="actor-car--4921307837344425854" depart="0.00" departLane="2" departPos="177.76" departSpeed="max" arrivalLane="2" arrivalPos="91.67">
        <route edges="gneE7 gneE8"/>
    </vehicle>
    <vehicle id="-flow-random-route-146ab81c-08a6-46dc-a89a-d2b13e6107a3-5898071096805091455-2-0.0" type="actor-car--4921307837344425854" depart="0.00" departLane="2" departPos="86.22" departSpeed="max" arrivalLane="2" arrivalPos="9.53">
        <route edges="-gneE9 -gneE8"/>
    </vehicle>
    <vehicle id="-flow-random-route-16c5b3ee-399a-4d19-8693-5899930b05f7-5898071096805091455-19-0.0" type="actor-car--4921307837344425854" depart="0.00" departLane="2" departPos="17.66" departSpeed="max" arrivalLane="2" arrivalPos="53.04">
        <route edges="-gneE10 -gneE9"/>
    </vehicle>
    <vehicle id="-flow-random-route-1b82450f-e5b3-4cbc-91a2-827953c499eb-5898071096805091455-16-0.0" type="actor-car--4921307837344425854" depart="0.00" departLane="2" departPos="59.42" departSpeed="max" arrivalLane="1" arrivalPos="42.20">
        <route edges="-gneE1 -gneE2"/>
    </vehicle>
    <vehicle id="-flow-random-route-1e9900b5-f28d-476f-8608-14092ca15c27-5898071096805091455-8-0.0" type="actor-car--4921307837344425854" depart="0.00" departLane="1" departPos="77.04" departSpeed="max" arrivalLane="0" arrivalPos="28.16">
        <route edges="-gneE7 -gneE3"/>
    </vehicle>
    <vehicle id="-flow-random-route-1eaac5b6-697a-44b8-b4d8-281f6cf56c68-5898071096805091455-6-0.0" type="actor-car--4921307837344425854" depart="0.00" departLane="1" departPos="19.63" departSpeed="max" arrivalLane="1" arrivalPos="12.91">
        <route edges="gneE7 gneE8"/>
    </vehicle>
    <vehicle id="-flow-random-route-2316dbea-466c-4c11-aa40-e7dc3a94873e-5898071096805091455-22-0.0" type="actor-car--4921307837344425854" depart="0.00" departLane="1" departPos="84.85" departSpeed="max" arrivalLane="2" arrivalPos="28.52">
        <route edges="gneE7 gneE8"/>
    </vehicle>
    <vehicle id="-flow-random-route-24f415c1-3dbb-48cc-8478-db01f0b7ec25-5898071096805091455-18-0.0" type="actor-car--4921307837344425854" depart="0.00" departLane="1" departPos="29.21" departSpeed="max" arrivalLane="2" arrivalPos="47.68">
        <route edges="-gneE10 -gneE9"/>
    </vehicle>
    <vehicle id="-flow-random-route-2ce7ca75-33fa-4499-ae45-7d980bc16f6a-5898071096805091455-17-0.0" type="actor-car--4921307837344425854" depart="0.00" departLane="0" departPos="97.05" departSpeed="max" arrivalLane="0" arrivalPos="74.91">
        <route edges="gneE0 gneE2"/>
    </vehicle>
    <vehicle id="-flow-random-route-2d9f39be-5fe0-46a3-b3fe-a9d2558669d6-5898071096805091455-0-0.0" type="actor-car--4921307837344425854" depart="0.00" departLane="2" departPos="146.33" departSpeed="max" arrivalLane="2" arrivalPos="121.81">
        <route edges="-gneE0 -gneE10"/>
    </vehicle>
    <vehicle id="-flow-random-route-3820e2f5-1a30-4240-93f5-5f17fa27377b-5898071096805091455-3-0.0" type="actor-car--4921307837344425854" depart="0.00" departLane="2" departPos="4.99" departSpeed="max" arrivalLane="2" arrivalPos="131.36">
        <route edges="-gneE9 -gneE8"/>
    </vehicle>
    <vehicle id="-flow-random-route-49e16b11-56ed-4072-83ba-7474c121e429-5898071096805091455-9-0.0" type="actor-car--4921307837344425854" depart="0.00" departLane="2" departPos="188.17" departSpeed="max" arrivalLane="0" arrivalPos="98.93">
        <route edges="gneE0 gneE2"/>
    </vehicle>
    <vehicle id="-flow-random-route-4ebff4a3-5345-4b7c-b4d2-f3a120db808a-5898071096805091455-14-0.0" type="actor-car--4921307837344425854" depart="0.00" departLane="0" departPos="111.23" departSpeed="max" arrivalLane="2" arrivalPos="8.14">
        <route edges="-gneE0 -gneE10"/>
    </vehicle>
    <vehicle id="-flow-random-route-6627f5c9-e2a0-4945-8fd4-265be3d030c0-5898071096805091455-10-0.0" type="actor-car--4921307837344425854" depart="0.00" departLane="1" departPos="93.06" departSpeed="max" arrivalLane="2" arrivalPos="24.45">
        <route edges="-gneE8 -gneE7"/>
    </vehicle>
    <vehicle id="-flow-random-route-69596494-ad47-4577-aca6-2351eb63296d-5898071096805091455-29-0.0" type="actor-car--4921307837344425854" depart="0.00" departLane="0" departPos="4.25" departSpeed="max" arrivalLane="1" arrivalPos="81.59">
        <route edges="gneE9 gneE10"/>
    </vehicle>
    <vehicle id="-flow-random-route-70397f3b-6d2b-4f9a-bbc2-55e32cdd1cfe-5898071096805091455-20-0.0" type="actor-car--4921307837344425854" depart="0.00" departLane="2" departPos="100.81" departSpeed="max" arrivalLane="2" arrivalPos="18.52">
        <route edges="-gneE10 -gneE9"/>
    </vehicle>
    <vehicle id="-flow-random-route-897094ef-4e31-4709-b240-5ab4d72918d1-5898071096805091455-11-0.0" type="actor-car--4921307837344425854" depart="0.00" departLane="1" departPos="58.61" departSpeed="max" arrivalLane="0" arrivalPos="29.75">
        <route edges="gneE7 gneE8"/>
    </vehicle>
    <vehicle id="-flow-random-route-9046dbae-c1f0-445e-8662-dc769c200a9f-5898071096805091455-1-0.0" type="actor-car--4921307837344425854" depart="0.00" departLane="2" departPos="132.95" departSpeed="max" arrivalLane="2" arrivalPos="23.14">
        <route edges="-gneE3 -gneE1"/>
    </vehicle>
    <vehicle id="-flow-random-route-95025caf-5bdb-4b11-ad45-8ef3d3c1930a-5898071096805091455-24-0.0" type="actor-car--4921307837344425854" depart="0.00" departLane="1" departPos="16.00" departSpeed="max" arrivalLane="2" arrivalPos="47.29">
        <route edges="gneE10 gneE0"/>
    </vehicle>
    <vehicle id="-flow-random-route-9728966c-dc02-4cf4-ad26-66953587ff11-5898071096805091455-15-0.0" type="actor-car--4921307837344425854" depart="0.00" departLane="1" departPos="23.83" departSpeed="max" arrivalLane="1" arrivalPos="7.35">
        <route edges="-gneE8 -gneE7"/>
    </vehicle>
    <vehicle id="-flow-random-route-9f2fcb1d-1251-46b3-964b-64747756d8f9-5898071096805091455-7-0.0" type="actor-car--4921307837344425854" depart="0.00" departLane="1" departPos="22.04" departSpeed="max" arrivalLane="0" arrivalPos="117.19">
        <route edges="gneE1 gneE3"/>
    </vehicle>
    <vehicle id="-flow-random-route-ab1d8952-bec8-4bf6-93b0-0733aeeb3f59-5898071096805091455-27-0.0" type="actor-car--4921307837344425854" depart="0.00" departLane="2" departPos="53.31" departSpeed="max" arrivalLane="0" arrivalPos="191.54">
        <route edges="gneE10 gneE0"/>
    </vehicle>
    <vehicle id="-flow-random-route-ae1f2b54-a55e-4545-80fc-8315aad2b8aa-5898071096805091455-23-0.0" type="actor-car--4921307837344425854" depart="0.00" departLane="0" departPos="98.31" departSpeed="max" arrivalLane="1" arrivalPos="150.26">
        <route edges="-gneE8 -gneE7"/>
    </vehicle>
    <vehicle id="-flow-random-route-b63ab67a-b607-4c67-b959-8c41374e5f38-5898071096805091455-5-0.0" type="actor-car--4921307837344425854" depart="0.00" departLane="1" departPos="70.03" departSpeed="max" arrivalLane="0" arrivalPos="119.98">
        <route edges="gneE7 gneE8"/>
    </vehicle>
    <vehicle id="-flow-random-route-bfd3cef5-3d15-4103-a2f1-009c926d5cb3-5898071096805091455-25-0.0" type="actor-car--4921307837344425854" depart="0.00" departLane="0" departPos="88.26" departSpeed="max" arrivalLane="1" arrivalPos="90.69">
        <route edges="gneE2 gneE1"/>
    </vehicle>
    <vehicle id="-flow-random-route-caead803-9cd2-4a9f-b220-beacef76126b-5898071096805091455-21-0.0" type="actor-car--4921307837344425854" depart="0.00" departLane="0" departPos="37.18" departSpeed="max" arrivalLane="0" arrivalPos="167.95">
        <route edges="-gneE2 -gneE0"/>
    </vehicle>
    <vehicle id="-flow-random-route-cd3c14a8-08ef-4547-bfbf-2dabe387aaae-5898071096805091455-4-0.0" type="actor-car--4921307837344425854" depart="0.00" departLane="0" departPos="115.40" departSpeed="max" arrivalLane="0" arrivalPos="15.15">
        <route edges="-gneE10 -gneE9"/>
    </vehicle>
    <vehicle id="-flow-random-route-cef2b22c-8601-418b-bb49-c7977afdb401-5898071096805091455-13-0.0" type="actor-car--4921307837344425854" depart="0.00" departLane="2" departPos="19.39" departSpeed="max" arrivalLane="1" arrivalPos="27.17">
        <route edges="gneE1 gneE3"/>
    </vehicle>
    <vehicle id="-flow-random-route-e81de24a-cfe1-40f6-9bd0-02a9966ec997-5898071096805091455-28-0.0" type="actor-car--4921307837344425854" depart="0.00" departLane="2" departPos="50.99" departSpeed="max" arrivalLane="2" arrivalPos="29.39">
        <route edges="gneE1 gneE3"/>
    </vehicle>
    <vehicle id="-flow-random-route-0e9a83b4-49b9-4b0a-9578-7d613510b5ba-5898071096805091455-26-0.1" type="actor-car--4921307837344425854" depart="120.00" departLane="1" departPos="38.04" departSpeed="max" arrivalLane="1" arrivalPos="76.75">
        <route edges="-gneE10 -gneE9"/>
    </vehicle>
    <vehicle id="-flow-random-route-13e5b37d-24f2-4329-a179-b371fd837718-5898071096805091455-12-0.1" type="actor-car--4921307837344425854" depart="120.00" departLane="2" departPos="177.76" departSpeed="max" arrivalLane="2" arrivalPos="91.67">
        <route edges="gneE7 gneE8"/>
    </vehicle>
    <vehicle id="-flow-random-route-146ab81c-08a6-46dc-a89a-d2b13e6107a3-5898071096805091455-2-0.1" type="actor-car--4921307837344425854" depart="120.00" departLane="2" departPos="86.22" departSpeed="max" arrivalLane="2" arrivalPos="9.53">
        <route edges="-gneE9 -gneE8"/>
    </vehicle>
    <vehicle id="-flow-random-route-16c5b3ee-399a-4d19-8693-5899930b05f7-5898071096805091455-19-0.1" type="actor-car--4921307837344425854" depart="120.00" departLane="2" departPos="17.66" departSpeed="max" arrivalLane="2" arrivalPos="53.04">
        <route edges="-gneE10 -gneE9"/>
    </vehicle>
    <vehicle id="-flow-random-route-1b82450f-e5b3-4cbc-91a2-827953c499eb-5898071096805091455-16-0.1" type="actor-car--4921307837344425854" depart="120.00" departLane="2" departPos="59.42" departSpeed="max" arrivalLane="1" arrivalPos="42.20">
        <route edges="-gneE1 -gneE2"/>
    </vehicle>
    <vehicle id="-flow-random-route-1e9900b5-f28d-476f-8608-14092ca15c27-5898071096805091455-8-0.1" type="actor-car--4921307837344425854" depart="120.00" departLane="1" departPos="77.04" departSpeed="max" arrivalLane="0" arrivalPos="28.16">
        <route edges="-gneE7 -gneE3"/>
    </vehicle>
    <vehicle id="-flow-random-route-1eaac5b6-697a-44b8-b4d8-281f6cf56c68-5898071096805091455-6-0.1" type="actor-car--4921307837344425854" depart="120.00" departLane="1" departPos="19.63" departSpeed="max" arrivalLane="1" arrivalPos="12.91">
        <route edges="gneE7 gneE8"/>
    </vehicle>
    <vehicle id="-flow-random-route-2316dbea-466c-4c11-aa40-e7dc3a94873e-5898071096805091455-22-0.1" type="actor-car--4921307837344425854" depart="120.00" departLane="1" departPos="84.85" departSpeed="max" arrivalLane="2" arrivalPos="28.52">
        <route edges="gneE7 gneE8"/>
    </vehicle>
    <vehicle id="-flow-random-route-24f415c1-3dbb-48cc-8478-db01f0b7ec25-5898071096805091455-18-0.1" type="actor-car--4921307837344425854" depart="120.00" departLane="1" departPos="29.21" departSpeed="max" arrivalLane="2" arrivalPos="47.68">
        <route edges="-gneE10 -gneE9"/>
    </vehicle>
    <vehicle id="-flow-random-route-2ce7ca75-33fa-4499-ae45-7d980bc16f6a-5898071096805091455-17-0.1" type="actor-car--4921307837344425854" depart="120.00" departLane="0" departPos="97.05" departSpeed="max" arrivalLane="0" arrivalPos="74.91">
        <route edges="gneE0 gneE2"/>
    </vehicle>
    <vehicle id="-flow-random-route-2d9f39be-5fe0-46a3-b3fe-a9d2558669d6-5898071096805091455-0-0.1" type="actor-car--4921307837344425854" depart="120.00" departLane="2" departPos="146.33" departSpeed="max" arrivalLane="2" arrivalPos="121.81">
        <route edges="-gneE0 -gneE10"/>
    </vehicle>
    <vehicle id="-flow-random-route-3820e2f5-1a30-4240-93f5-5f17fa27377b-5898071096805091455-3-0.1" type="actor-car--4921307837344425854" depart="120.00" departLane="2" departPos="4.99" departSpeed="max" arrivalLane="2" arrivalPos="131.36">
        <route edges="-gneE9 -gneE8"/>
    </vehicle>
    <vehicle id="-flow-random-route-49e16b11-56ed-4072-83ba-7474c121e429-5898071096805091455-9-0.1" type="actor-car--4921307837344425854" depart="120.00" departLane="2" departPos="188.17" departSpeed="max" arrivalLane="0" arrivalPos="98.93">
        <route edges="gneE0 gneE2"/>
    </vehicle>
    <vehicle id="-flow-random-route-4ebff4a3-5345-4b7c-b4d2-f3a120db808a-5898071096805091455-14-0.1" type="actor-car--4921307837344425854" depart="120.00" departLane="0" departPos="111.23" departSpeed="max" arrivalLane="2" arrivalPos="8.14">
        <route edges="-gneE0 -gneE10"/>
    </vehicle>
    <vehicle id="-flow-random-route-6627f5c9-e2a0-4945-8fd4-265be3d030c0-5898071096805091455-10-0.1" type="actor-car--4921307837344425854" depart="120.00" departLane="1" departPos="93.06" departSpeed="max" arrivalLane="2" arrivalPos="24.45">
        <route edges="-gneE8 -gneE7"/>
    </vehicle>
    <vehicle id="-flow-random-route-69596494-ad47-4577-aca6-2351eb63296d-5898071096805091455-29-0.1" type="actor-car--4921307837344425854" depart="120.00" departLane="0" departPos="4.25" departSpeed="max" arrivalLane="1" arrivalPos="81.59">
        <route edges="gneE9 gneE10"/>
    </vehicle>
    <vehicle id="-flow-random-route-70397f3b-6d2b-4f9a-bbc2-55e32cdd1cfe-5898071096805091455-20-0.1" type="actor-car--4921307837344425854" depart="120.00" departLane="2" departPos="100.81" departSpeed="max" arrivalLane="2" arrivalPos="18.52">
        <route edges="-gneE10 -gneE9"/>
    </vehicle>
    <vehicle id="-flow-random-route-897094ef-4e31-4709-b240-5ab4d72918d1-5898071096805091455-11-0.1" type="actor-car--4921307837344425854" depart="120.00" departLane="1" departPos="58.61" departSpeed="max" arrivalLane="0" arrivalPos="29.75">
        <route edges="gneE7 gneE8"/>
    </vehicle>
    <vehicle id="-flow-random-route-9046dbae-c1f0-445e-8662-dc769c200a9f-5898071096805091455-1-0.1" type="actor-car--4921307837344425854" depart="120.00" departLane="2" departPos="132.95" departSpeed="max" arrivalLane="2" arrivalPos="23.14">
        <route edges="-gneE3 -gneE1"/>
    </vehicle>
    <vehicle id="-flow-random-route-95025caf-5bdb-4b11-ad45-8ef3d3c1930a-5898071096805091455-24-0.1" type="actor-car--4921307837344425854" depart="120.00" departLane="1" departPos="16.00" departSpeed="max" arrivalLane="2" arrivalPos="47.29">
        <route edges="gneE10 gneE0"/>
    </vehicle>
    <vehicle id="-flow-random-route-9728966c-dc02-4cf4-ad26-66953587ff11-5898071096805091455-15-0.1" type="actor-car--4921307837344425854" depart="120.00" departLane="1" departPos="23.83" departSpeed="max" arrivalLane="1" arrivalPos="7.35">
        <route edges="-gneE8 -gneE7"/>
    </vehicle>
    <vehicle id="-flow-random-route-9f2fcb1d-1251-46b3-964b-64747756d8f9-5898071096805091455-7-0.1" type="actor-car--4921307837344425854" depart="120.00" departLane="1" departPos="22.04" departSpeed="max" arrivalLane="0" arrivalPos="117.19">
        <route edges="gneE1 gneE3"/>
    </vehicle>
    <vehicle id="-flow-random-route-ab1d8952-bec8-4bf6-93b0-0733aeeb3f59-5898071096805091455-27-0.1" type="actor-car--4921307837344425854" depart="120.00" departLane="2" departPos="53.31" departSpeed="max" arrivalLane="0" arrivalPos="191.54">
        <route edges="gneE10 gneE0"/>
    </vehicle>
    <vehicle id="-flow-random-route-ae1f2b54-a55e-4545-80fc-8315aad2b8aa-5898071096805091455-23-0.1" type="actor-car--4921307837344425854" depart="120.00" departLane="0" departPos="98.31" departSpeed="max" arrivalLane="1" arrivalPos="150.26">
        <route edges="-gneE8 -gneE7"/>
    </vehicle>
    <vehicle id="-flow-random-route-b63ab67a-b607-4c67-b959-8c41374e5f38-5898071096805091455-5-0.1" type="actor-car--4921307837344425854" depart="120.00" departLane="1" departPos="70.03" departSpeed="max" arrivalLane="0" arrivalPos="119.98">
        <route edges="gneE7 gneE8"/>
    </vehicle>
    <vehicle id="-flow-random-route-bfd3cef5-3d15-4103-a2f1-009c926d5cb3-5898071096805091455-25-0.1" type="actor-car--4921307837344425854" depart="120.00" departLane="0" departPos="88.26" departSpeed="max" arrivalLane="1" arrivalPos="90.69">
        <route edges="gneE2 gneE1"/>
    </vehicle>
    <vehicle id="-flow-random-route-caead803-9cd2-4a9f-b220-beacef76126b-5898071096805091455-21-0.1" type="actor-car--4921307837344425854" depart="120.00" departLane="0" departPos="37.18" departSpeed="max" arrivalLane="0" arrivalPos="167.95">
        <route edges="-gneE2 -gneE0"/>
    </vehicle>
    <vehicle id="-flow-random-route-cd3c14a8-08ef-4547-bfbf-2dabe387aaae-5898071096805091455-4-0.1" type="actor-car--4921307837344425854" depart="120.00" departLane="0" departPos="115.40" departSpeed="max" arrivalLane="0" arrivalPos="15.15">
        <route edges="-gneE10 -gneE9"/>
    </vehicle>
    <vehicle id="-flow-random-route-cef2b22c-8601-418b-bb49-c7977afdb401-5898071096805091455-13-0.1" type="actor-car--4921307837344425854" depart="120.00" departLane="2" departPos="19.39" departSpeed="max" arrivalLane="1" arrivalPos="27.17">
        <route edges="gneE1 gneE3"/>
    </vehicle>
    <vehicle id="-flow-random-route-e81de24a-cfe1-40f6-9bd0-02a9966ec997-5898071096805091455-28-0.1" type="actor-car--4921307837344425854" depart="120.00" departLane="2" departPos="50.99" departSpeed="max" arrivalLane="2" arrivalPos="29.39">
        <route edges="gneE1 gneE3"/>
    </vehicle>
    <vehicle id="-flow-random-route-0e9a83b4-49b9-4b0a-9578-7d613510b5ba-5898071096805091455-26-0.2" type="actor-car--4921307837344425854" depart="240.00" departLane="1" departPos="38.04" departSpeed="max" arrivalLane="1" arrivalPos="76.75">
        <route edges="-gneE10 -gneE9"/>
    </vehicle>
    <vehicle id="-flow-random-route-13e5b37d-24f2-4329-a179-b371fd837718-5898071096805091455-12-0.2" type="actor-car--4921307837344425854" depart="240.00" departLane="2" departPos="177.76" departSpeed="max" arrivalLane="2" arrivalPos="91.67">
        <route edges="gneE7 gneE8"/>
    </vehicle>
    <vehicle id="-flow-random-route-146ab81c-08a6-46dc-a89a-d2b13e6107a3-5898071096805091455-2-0.2" type="actor-car--4921307837344425854" depart="240.00" departLane="2" departPos="86.22" departSpeed="max" arrivalLane="2" arrivalPos="9.53">
        <route edges="-gneE9 -gneE8"/>
    </vehicle>
    <vehicle id="-flow-random-route-16c5b3ee-399a-4d19-8693-5899930b05f7-5898071096805091455-19-0.2" type="actor-car--4921307837344425854" depart="240.00" departLane="2" departPos="17.66" departSpeed="max" arrivalLane="2" arrivalPos="53.04">
        <route edges="-gneE10 -gneE9"/>
    </vehicle>
    <vehicle id="-flow-random-route-1b82450f-e5b3-4cbc-91a2-827953c499eb-5898071096805091455-16-0.2" type="actor-car--4921307837344425854" depart="240.00" departLane="2" departPos="59.42" departSpeed="max" arrivalLane="1" arrivalPos="42.20">
        <route edges="-gneE1 -gneE2"/>
    </vehicle>
    <vehicle id="-flow-random-route-1e9900b5-f28d-476f-8608-14092ca15c27-5898071096805091455-8-0.2" type="actor-car--4921307837344425854" depart="240.00" departLane="1" departPos="77.04" departSpeed="max" arrivalLane="0" arrivalPos="28.16">
        <route edges="-gneE7 -gneE3"/>
    </vehicle>
    <vehicle id="-flow-random-route-1eaac5b6-697a-44b8-b4d8-281f6cf56c68-5898071096805091455-6-0.2" type="actor-car--4921307837344425854" depart="240.00" departLane="1" departPos="19.63" departSpeed="max" arrivalLane="1" arrivalPos="12.91">
        <route edges="gneE7 gneE8"/>
    </vehicle>
    <vehicle id="-flow-random-route-2316dbea-466c-4c11-aa40-e7dc3a94873e-5898071096805091455-22-0.2" type="actor-car--4921307837344425854" depart="240.00" departLane="1" departPos="84.85" departSpeed="max" arrivalLane="2" arrivalPos="28.52">
        <route edges="gneE7 gneE8"/>
    </vehicle>
    <vehicle id="-flow-random-route-24f415c1-3dbb-48cc-8478-db01f0b7ec25-5898071096805091455-18-0.2" type="actor-car--4921307837344425854" depart="240.00" departLane="1" departPos="29.21" departSpeed="max" arrivalLane="2" arrivalPos="47.68">
        <route edges="-gneE10 -gneE9"/>
    </vehicle>
    <vehicle id="-flow-random-route-2ce7ca75-33fa-4499-ae45-7d980bc16f6a-5898071096805091455-17-0.2" type="actor-car--4921307837344425854" depart="240.00" departLane="0" departPos="97.05" departSpeed="max" arrivalLane="0" arrivalPos="74.91">
        <route edges="gneE0 gneE2"/>
    </vehicle>
    <vehicle id="-flow-random-route-2d9f39be-5fe0-46a3-b3fe-a9d2558669d6-5898071096805091455-0-0.2" type="actor-car--4921307837344425854" depart="240.00" departLane="2" departPos="146.33" departSpeed="max" arrivalLane="2" arrivalPos="121.81">
        <route edges="-gneE0 -gneE10"/>
    </vehicle>
    <vehicle id="-flow-random-route-3820e2f5-1a30-4240-93f5-5f17fa27377b-5898071096805091455-3-0.2" type="actor-car--4921307837344425854" depart="240.00" departLane="2" departPos="4.99" departSpeed="max" arrivalLane="2" arrivalPos="131.36">
        <route edges="-gneE9 -gneE8"/>
    </vehicle>
    <vehicle id="-flow-random-route-49e16b11-56ed-4072-83ba-7474c121e429-5898071096805091455-9-0.2" type="actor-car--4921307837344425854" depart="240.00" departLane="2" departPos="188.17" departSpeed="max" arrivalLane="0" arrivalPos="98.93">
        <route edges="gneE0 gneE2"/>
    </vehicle>
    <vehicle id="-flow-random-route-4ebff4a3-5345-4b7c-b4d2-f3a120db808a-5898071096805091455-14-0.2" type="actor-car--4921307837344425854" depart="240.00" departLane="0" departPos="111.23" departSpeed="max" arrivalLane="2" arrivalPos="8.14">
        <route edges="-gneE0 -gneE10"/>
    </vehicle>
    <vehicle id="-flow-random-route-6627f5c9-e2a0-4945-8fd4-265be3d030c0-5898071096805091455-10-0.2" type="actor-car--4921307837344425854" depart="240.00" departLane="1" departPos="93.06" departSpeed="max" arrivalLane="2" arrivalPos="24.45">
        <route edges="-gneE8 -gneE7"/>
    </vehicle>
    <vehicle id="-flow-random-route-69596494-ad47-4577-aca6-2351eb63296d-5898071096805091455-29-0.2" type="actor-car--4921307837344425854" depart="240.00" departLane="0" departPos="4.25" departSpeed="max" arrivalLane="1" arrivalPos="81.59">
        <route edges="gneE9 gneE10"/>
    </vehicle>
    <vehicle id="-flow-random-route-70397f3b-6d2b-4f9a-bbc2-55e32cdd1cfe-5898071096805091455-20-0.2" type="actor-car--4921307837344425854" depart="240.00" departLane="2" departPos="100.81" departSpeed="max" arrivalLane="2" arrivalPos="18.52">
        <route edges="-gneE10 -gneE9"/>
    </vehicle>
    <vehicle id="-flow-random-route-897094ef-4e31-4709-b240-5ab4d72918d1-5898071096805091455-11-0.2" type="actor-car--4921307837344425854" depart="240.00" departLane="1" departPos="58.61" departSpeed="max" arrivalLane="0" arrivalPos="29.75">
        <route edges="gneE7 gneE8"/>
    </vehicle>
    <vehicle id="-flow-random-route-9046dbae-c1f0-445e-8662-dc769c200a9f-5898071096805091455-1-0.2" type="actor-car--4921307837344425854" depart="240.00" departLane="2" departPos="132.95" departSpeed="max" arrivalLane="2" arrivalPos="23.14">
        <route edges="-gneE3 -gneE1"/>
    </vehicle>
    <vehicle id="-flow-random-route-95025caf-5bdb-4b11-ad45-8ef3d3c1930a-5898071096805091455-24-0.2" type="actor-car--4921307837344425854" depart="240.00" departLane="1" departPos="16.00" departSpeed="max" arrivalLane="2" arrivalPos="47.29">
        <route edges="gneE10 gneE0"/>
    </vehicle>
    <vehicle id="-flow-random-route-9728966c-dc02-4cf4-ad26-66953587ff11-5898071096805091455-15-0.2" type="actor-car--4921307837344425854" depart="240.00" departLane="1" departPos="23.83" departSpeed="max" arrivalLane="1" arrivalPos="7.35">
        <route edges="-gneE8 -gneE7"/>
    </vehicle>
    <vehicle id="-flow-random-route-9f2fcb1d-1251-46b3-964b-64747756d8f9-5898071096805091455-7-0.2" type="actor-car--4921307837344425854" depart="240.00" departLane="1" departPos="22.04" departSpeed="max" arrivalLane="0" arrivalPos="117.19">
        <route edges="gneE1 gneE3"/>
    </vehicle>
    <vehicle id="-flow-random-route-ab1d8952-bec8-4bf6-93b0-0733aeeb3f59-5898071096805091455-27-0.2" type="actor-car--4921307837344425854" depart="240.00" departLane="2" departPos="53.31" departSpeed="max" arrivalLane="0" arrivalPos="191.54">
        <route edges="gneE10 gneE0"/>
    </vehicle>
    <vehicle id="-flow-random-route-ae1f2b54-a55e-4545-80fc-8315aad2b8aa-5898071096805091455-23-0.2" type="actor-car--4921307837344425854" depart="240.00" departLane="0" departPos="98.31" departSpeed="max" arrivalLane="1" arrivalPos="150.26">
        <route edges="-gneE8 -gneE7"/>
    </vehicle>
    <vehicle id="-flow-random-route-b63ab67a-b607-4c67-b959-8c41374e5f38-5898071096805091455-5-0.2" type="actor-car--4921307837344425854" depart="240.00" departLane="1" departPos="70.03" departSpeed="max" arrivalLane="0" arrivalPos="119.98">
        <route edges="gneE7 gneE8"/>
    </vehicle>
    <vehicle id="-flow-random-route-bfd3cef5-3d15-4103-a2f1-009c926d5cb3-5898071096805091455-25-0.2" type="actor-car--4921307837344425854" depart="240.00" departLane="0" departPos="88.26" departSpeed="max" arrivalLane="1" arrivalPos="90.69">
        <route edges="gneE2 gneE1"/>
    </vehicle>
    <vehicle id="-flow-random-route-caead803-9cd2-4a9f-b220-beacef76126b-5898071096805091455-21-0.2" type="actor-car--4921307837344425854" depart="240.00" departLane="0" departPos="37.18" departSpeed="max" arrivalLane="0" arrivalPos="167.95">
        <route edges="-gneE2 -gneE0"/>
    </vehicle>
    <vehicle id="-flow-random-route-cd3c14a8-08ef-4547-bfbf-2dabe387aaae-5898071096805091455-4-0.2" type="actor-car--4921307837344425854" depart="240.00" departLane="0" departPos="115.40" departSpeed="max" arrivalLane="0" arrivalPos="15.15">
        <route edges="-gneE10 -gneE9"/>
    </vehicle>
    <vehicle id="-flow-random-route-cef2b22c-8601-418b-bb49-c7977afdb401-5898071096805091455-13-0.2" type="actor-car--4921307837344425854" depart="240.00" departLane="2" departPos="19.39" departSpeed="max" arrivalLane="1" arrivalPos="27.17">
        <route edges="gneE1 gneE3"/>
    </vehicle>
    <vehicle id="-flow-random-route-e81de24a-cfe1-40f6-9bd0-02a9966ec997-5898071096805091455-28-0.2" type="actor-car--4921307837344425854" depart="240.00" departLane="2" departPos="50.99" departSpeed="max" arrivalLane="2" arrivalPos="29.39">
        <route edges="gneE1 gneE3"/>
    </vehicle>
    <vehicle id="-flow-random-route-0e9a83b4-49b9-4b0a-9578-7d613510b5ba-5898071096805091455-26-0.3" type="actor-car--4921307837344425854" depart="360.00" departLane="1" departPos="38.04" departSpeed="max" arrivalLane="1" arrivalPos="76.75">
        <route edges="-gneE10 -gneE9"/>
    </vehicle>
    <vehicle id="-flow-random-route-13e5b37d-24f2-4329-a179-b371fd837718-5898071096805091455-12-0.3" type="actor-car--4921307837344425854" depart="360.00" departLane="2" departPos="177.76" departSpeed="max" arrivalLane="2" arrivalPos="91.67">
        <route edges="gneE7 gneE8"/>
    </vehicle>
    <vehicle id="-flow-random-route-146ab81c-08a6-46dc-a89a-d2b13e6107a3-5898071096805091455-2-0.3" type="actor-car--4921307837344425854" depart="360.00" departLane="2" departPos="86.22" departSpeed="max" arrivalLane="2" arrivalPos="9.53">
        <route edges="-gneE9 -gneE8"/>
    </vehicle>
    <vehicle id="-flow-random-route-16c5b3ee-399a-4d19-8693-5899930b05f7-5898071096805091455-19-0.3" type="actor-car--4921307837344425854" depart="360.00" departLane="2" departPos="17.66" departSpeed="max" arrivalLane="2" arrivalPos="53.04">
        <route edges="-gneE10 -gneE9"/>
    </vehicle>
    <vehicle id="-flow-random-route-1b82450f-e5b3-4cbc-91a2-827953c499eb-5898071096805091455-16-0.3" type="actor-car--4921307837344425854" depart="360.00" departLane="2" departPos="59.42" departSpeed="max" arrivalLane="1" arrivalPos="42.20">
        <route edges="-gneE1 -gneE2"/>
    </vehicle>
    <vehicle id="-flow-random-route-1e9900b5-f28d-476f-8608-14092ca15c27-5898071096805091455-8-0.3" type="actor-car--4921307837344425854" depart="360.00" departLane="1" departPos="77.04" departSpeed="max" arrivalLane="0" arrivalPos="28.16">
        <route edges="-gneE7 -gneE3"/>
    </vehicle>
    <vehicle id="-flow-random-route-1eaac5b6-697a-44b8-b4d8-281f6cf56c68-5898071096805091455-6-0.3" type="actor-car--4921307837344425854" depart="360.00" departLane="1" departPos="19.63" departSpeed="max" arrivalLane="1" arrivalPos="12.91">
        <route edges="gneE7 gneE8"/>
    </vehicle>