<?xml version="1.0" encoding="UTF-8"?>

<!-- generated on Fri Sep 18 09:13:30 2020 by Eclipse SUMO duarouter Version 1.6.0
<configuration xmlns:xsi="http://www.w3.org/2001/XMLSchema-instance" xsi:noNamespaceSchemaLocation="http://sumo.dlr.de/xsd/duarouterConfiguration.xsd">

    <input>
        <net-file value="demo1_2_sharp/map.net.xml"/>
        <route-files value="/tmp/tmpjefh4i28/trips.trips.xml"/>
    </input>

    <output>
        <output-file value="demo1_2_sharp/traffic/30_patient_car.rou.xml"/>
        <alternatives-output value="demo1_2_sharp/traffic/30_patient_car.rou.alt.xml"/>
    </output>

    <processing>
        <unsorted-input value="true"/>
        <repair value="true"/>
    </processing>

    <report>
        <error-log value="/tmp/smarts/_duarouter_routing/traffic/30_patient_car.log"/>
        <no-step-log value="true"/>
    </report>

    <random_number>
        <seed value="42"/>
    </random_number>

</configuration>
-->

<routes xmlns:xsi="http://www.w3.org/2001/XMLSchema-instance" xsi:noNamespaceSchemaLocation="http://sumo.dlr.de/xsd/routes_file.xsd">
    <vType id="actor-car--5813270397586555039" minGap="2.50" speedFactor="normc(0.50,0.20,0.20,2.00)" vClass="passenger" impatience="0.50" lcCooperative="0.5" lcImpatience="0" jmDriveAfterYellowTime="1.0" accel="2.6" decel="4.5" sigma="0.5"/>
    <vehicle id="-flow-random-route-0b432307-e899-46b6-b83a-cc5d7fb60f0e--554521683334033463-20-0.0" type="actor-car--5813270397586555039" depart="0.00" departLane="0" departPos="77.88" departSpeed="max" arrivalLane="0" arrivalPos="57.89">
        <route edges="gneE21 gneE22 gneE23 gneE24 gneE25 gneE26 gneE27 gneE29 gneE30 gneE15"/>
    </vehicle>
    <vehicle id="-flow-random-route-192a552a-11d5-4100-acd7-7d4ae8613228--554521683334033463-17-0.0" type="actor-car--5813270397586555039" depart="0.00" departLane="0" departPos="56.63" departSpeed="max" arrivalLane="0" arrivalPos="4.62">
        <route edges="-gneE27 -gneE26 -gneE25 -gneE24 -gneE23 -gneE22 -gneE21 -gneE20 -gneE19 -gneE18"/>
    </vehicle>
    <vehicle id="-flow-random-route-1a8a0508-dc47-4103-b75d-f14584cedc0e--554521683334033463-3-0.0" type="actor-car--5813270397586555039" depart="0.00" departLane="0" departPos="17.40" departSpeed="max" arrivalLane="0" arrivalPos="96.17">
        <route edges="-gneE24 -gneE23 -gneE22 -gneE21 -gneE20 -gneE19 -gneE18 -gneE17 gneE16 -gneE15"/>
    </vehicle>
    <vehicle id="-flow-random-route-1fceff1a-a3a7-46c7-a39d-c1b9fac0b86a--554521683334033463-10-0.0" type="actor-car--5813270397586555039" depart="0.00" departLane="0" departPos="144.99" departSpeed="max" arrivalLane="0" arrivalPos="77.52">
        <route edges="gneE17 gneE18 gneE19 gneE20 gneE21 gneE22 gneE23 gneE24 gneE25 gneE26"/>
    </vehicle>
    <vehicle id="-flow-random-route-30542609-7531-4a52-b457-f373e6abf5ad--554521683334033463-5-0.0" type="actor-car--5813270397586555039" depart="0.00" departLane="0" departPos="105.11" departSpeed="max" arrivalLane="0" arrivalPos="17.24">
        <route edges="-gneE19 -gneE18 -gneE17 gneE16 -gneE15 -gneE30 -gneE29 -gneE27 -gneE26 -gneE25"/>
    </vehicle>
    <vehicle id="-flow-random-route-34fc0290-ce45-4a67-afd7-035e05d1f09e--554521683334033463-14-0.0" type="actor-car--5813270397586555039" depart="0.00" departLane="0" departPos="88.50" departSpeed="max" arrivalLane="0" arrivalPos="60.81">
        <route edges="-gneE18 -gneE17 gneE16 -gneE15 -gneE30 -gneE29 -gneE27 -gneE26 -gneE25 -gneE24"/>
    </vehicle>
    <vehicle id="-flow-random-route-386b17b8-a279-4e40-87ac-cdec3d07d760--554521683334033463-23-0.0" type="actor-car--5813270397586555039" depart="0.00" departLane="0" departPos="27.61" departSpeed="max" arrivalLane="0" arrivalPos="93.20">
        <route edges="-gneE22 -gneE21 -gneE20 -gneE19 -gneE18 -gneE17 gneE16 -gneE15 -gneE30 -gneE29"/>
    </vehicle>
    <vehicle id="-flow-random-route-434f512b-d189-438e-831b-09d873f893c2--554521683334033463-19-0.0" type="actor-car--5813270397586555039" depart="0.00" departLane="0" departPos="83.12" departSpeed="max" arrivalLane="0" arrivalPos="25.77">
        <route edges="gneE21 gneE22 gneE23 gneE24 gneE25 gneE26 gneE27 gneE29 gneE30 gneE15"/>
    </vehicle>
    <vehicle id="-flow-random-route-48043fa4-5d7b-40b0-a416-3233ae1fa58d--554521683334033463-22-0.0" type="actor-car--5813270397586555039" depart="0.00" departLane="0" departPos="40.73" departSpeed="max" arrivalLane="0" arrivalPos="60.66">
        <route edges="gneE25 gneE26 gneE27 gneE29 gneE30 gneE15 -gneE16 gneE17 gneE18 gneE19"/>
    </vehicle>
    <vehicle id="-flow-random-route-554992a5-f06d-489f-8e4c-6ea9441ea6e5--554521683334033463-13-0.0" type="actor-car--5813270397586555039" depart="0.00" departLane="0" departPos="44.07" departSpeed="max" arrivalLane="0" arrivalPos="66.27">
        <route edges="-gneE21 -gneE20 -gneE19 -gneE18 -gneE17 gneE16 -gneE15 -gneE30 -gneE29 -gneE27"/>
    </vehicle>
    <vehicle id="-flow-random-route-6df93d50-a884-4a69-9973-6082ea625e85--554521683334033463-27-0.0" type="actor-car--5813270397586555039" depart="0.00" departLane="0" departPos="21.77" departSpeed="max" arrivalLane="0" arrivalPos="97.38">
        <route edges="-gneE22 -gneE21 -gneE20 -gneE19 -gneE18 -gneE17 gneE16 -gneE15 -gneE30 -gneE29"/>
    </vehicle>
    <vehicle id="-flow-random-route-87059667-ab9a-4598-90c4-29ab12a5c3c5--554521683334033463-8-0.0" type="actor-car--5813270397586555039" depart="0.00" departLane="0" departPos="116.71" departSpeed="max" arrivalLane="0" arrivalPos="98.75">
        <route edges="-gneE23 -gneE22 -gneE21 -gneE20 -gneE19 -gneE18 -gneE17 gneE16 -gneE15 -gneE30"/>
    </vehicle>
    <vehicle id="-flow-random-route-8ac71af1-665d-472d-a815-f57cad4cee04--554521683334033463-29-0.0" type="actor-car--5813270397586555039" depart="0.00" departLane="0" departPos="45.33" departSpeed="max" arrivalLane="0" arrivalPos="107.16">
        <route edges="-gneE20 -gneE19 -gneE18 -gneE17 gneE16 -gneE15 -gneE30 -gneE29 -gneE27 -gneE26"/>
    </vehicle>
    <vehicle id="-flow-random-route-90d9e028-ad39-42a2-b08b-efb5e2d0053a--554521683334033463-9-0.0" type="actor-car--5813270397586555039" depart="0.00" departLane="0" departPos="60.38" departSpeed="max" arrivalLane="0" arrivalPos="15.85">
        <route edges="-gneE21 -gneE20 -gneE19 -gneE18 -gneE17 gneE16 -gneE15 -gneE30 -gneE29 -gneE27"/>
    </vehicle>
    <vehicle id="-flow-random-route-9a345bcd-823b-440d-80ce-4200c78f60ed--554521683334033463-4-0.0" type="actor-car--5813270397586555039" depart="0.00" departLane="0" departPos="2.67" departSpeed="max" arrivalLane="0" arrivalPos="102.26">
        <route edges="gneE16 -gneE15 -gneE30 -gneE29 -gneE27 -gneE26 -gneE25 -gneE24 -gneE23 -gneE22"/>
    </vehicle>
    <vehicle id="-flow-random-route-9babd604-9213-435b-9ad8-faf1d47f74ac--554521683334033463-2-0.0" type="actor-car--5813270397586555039" depart="0.00" departLane="0" departPos="0.71" departSpeed="max" arrivalLane="0" arrivalPos="23.06">
        <route edges="-gneE27 -gneE26 -gneE25 -gneE24 -gneE23 -gneE22 -gneE21 -gneE20 -gneE19 -gneE18"/>
    </vehicle>
    <vehicle id="-flow-random-route-9bdcd724-c81d-4b6e-b838-642baa290688--554521683334033463-15-0.0" type="actor-car--5813270397586555039" depart="0.00" departLane="0" departPos="61.04" departSpeed="max" arrivalLane="0" arrivalPos="38.40">
        <route edges="gneE15 -gneE16 gneE17 gneE18 gneE19 gneE20 gneE21 gneE22 gneE23 gneE24"/>
    </vehicle>
    <vehicle id="-flow-random-route-ae27d6e4-19ee-4ce1-b31d-7d3f3611d1a5--554521683334033463-6-0.0" type="actor-car--5813270397586555039" depart="0.00" departLane="0" departPos="223.69" departSpeed="max" arrivalLane="0" arrivalPos="52.63">
        <route edges="-gneE24 -gneE23 -gneE22 -gneE21 -gneE20 -gneE19 -gneE18 -gneE17 gneE16 -gneE15"/>
    </vehicle>
    <vehicle id="-flow-random-route-b13e3acf-d6fd-44d1-9091-01b0c1396c95--554521683334033463-0-0.0" type="actor-car--5813270397586555039" depart="0.00" departLane="0" departPos="163.69" departSpeed="max" arrivalLane="0" arrivalPos="91.48">
        <route edges="-gneE23 -gneE22 -gneE21 -gneE20 -gneE19 -gneE18 -gneE17 gneE16 -gneE15 -gneE30"/>
    </vehicle>
    <vehicle id="-flow-random-route-b6cd98f1-e9f8-4f4f-84ca-26748cf717b9--554521683334033463-11-0.0" type="actor-car--5813270397586555039" depart="0.00" departLane="0" departPos="37.74" departSpeed="max" arrivalLane="0" arrivalPos="53.29">
        <route edges="-gneE27 -gneE26 -gneE25 -gneE24 -gneE23 -gneE22 -gneE21 -gneE20 -gneE19 -gneE18"/>
    </vehicle>
    <vehicle id="-flow-random-route-b8127e03-a674-410e-84bc-cdab46c191e7--554521683334033463-28-0.0" type="actor-car--5813270397586555039" depart="0.00" departLane="0" departPos="42.35" departSpeed="max" arrivalLane="0" arrivalPos="25.30">
        <route edges="-gneE29 -gneE27 -gneE26 -gneE25 -gneE24 -gneE23 -gneE22 -gneE21 -gneE20 -gneE19"/>
    </vehicle>
    <vehicle id="-flow-random-route-be5a0598-ff22-4c8c-8f25-107901c9ae42--554521683334033463-1-0.0" type="actor-car--5813270397586555039" depart="0.00" departLane="0" departPos="112.05" departSpeed="max" arrivalLane="0" arrivalPos="10.17">
        <route edges="gneE29 gneE30 gneE15 -gneE16 gneE17 gneE18 gneE19 gneE20 gneE21 gneE22"/>
    </vehicle>
    <vehicle id="-flow-random-route-cb6f2f94-98d0-42ca-8d4a-90993d6aab45--554521683334033463-25-0.0" type="actor-car--5813270397586555039" depart="0.00" departLane="0" departPos="96.54" departSpeed="max" arrivalLane="0" arrivalPos="98.93">
        <route edges="-gneE22 -gneE21 -gneE20 -gneE19 -gneE18 -gneE17 gneE16 -gneE15 -gneE30 -gneE29"/>
    </vehicle>
    <vehicle id="-flow-random-route-cbe9a915-0093-46cc-82a4-d09eccb65d8d--554521683334033463-7-0.0" type="actor-car--5813270397586555039" depart="0.00" departLane="0" departPos="96.78" departSpeed="max" arrivalLane="0" arrivalPos="47.56">
        <route edges="gneE22 gneE23 gneE24 gneE25 gneE26 gneE27 gneE29 gneE30 gneE15 -gneE16"/>
    </vehicle>
    <vehicle id="-flow-random-route-cf4c0282-b1a9-4e77-94c8-b1d8381a0941--554521683334033463-12-0.0" type="actor-car--5813270397586555039" depart="0.00" departLane="0" departPos="109.30" departSpeed="max" arrivalLane="0" arrivalPos="207.34">
        <route edges="-gneE17 gneE16 -gneE15 -gneE30 -gneE29 -gneE27 -gneE26 -gneE25 -gneE24 -gneE23"/>
    </vehicle>
    <vehicle id="-flow-random-route-d55117dc-cd6f-4259-8838-faeed6c96fa8--554521683334033463-21-0.0" type="actor-car--5813270397586555039" depart="0.00" departLane="0" departPos="23.57" departSpeed="max" arrivalLane="0" arrivalPos="77.39">
        <route edges="gneE21 gneE22 gneE23 gneE24 gneE25 gneE26 gneE27 gneE29 gneE30 gneE15"/>
    </vehicle>
    <vehicle id="-flow-random-route-d9b31781-0dfd-460a-8e79-18d5f53ee0a2--554521683334033463-18-0.0" type="actor-car--5813270397586555039" depart="0.00" departLane="0" departPos="103.25" departSpeed="max" arrivalLane="0" arrivalPos="10.80">
        <route edges="gneE22 gneE23 gneE24 gneE25 gneE26 gneE27 gneE29 gneE30 gneE15 -gneE16"/>
    </vehicle>
    <vehicle id="-flow-random-route-ef5eb23b-4c62-417c-b191-4b693cd83656--554521683334033463-16-0.0" type="actor-car--5813270397586555039" depart="0.00" departLane="0" departPos="54.24" departSpeed="max" arrivalLane="0" arrivalPos="144.61">
        <route edges="-gneE30 -gneE29 -gneE27 -gneE26 -gneE25 -gneE24 -gneE23 -gneE22 -gneE21 -gneE20"/>
    </vehicle>
    <vehicle id="-flow-random-route-f566ebab-8d5e-4776-a6a5-1d90360100f7--554521683334033463-26-0.0" type="actor-car--5813270397586555039" depart="0.00" departLane="0" departPos="69.80" departSpeed="max" arrivalLane="0" arrivalPos="76.74">
        <route edges="-gneE21 -gneE20 -gneE19 -gneE18 -gneE17 gneE16 -gneE15 -gneE30 -gneE29 -gneE27"/>
    </vehicle>
    <vehicle id="-flow-random-route-f6dd51a4-6ebe-4fa5-bd96-cd347144923f--554521683334033463-24-0.0" type="actor-car--5813270397586555039" depart="0.00" departLane="0" departPos="85.17" departSpeed="max" arrivalLane="0" arrivalPos="24.41">
        <route edges="gneE19 gneE20 gneE21 gneE22 gneE23 gneE24 gneE25 gneE26 gneE27 gneE29"/>
    </vehicle>
    <vehicle id="-flow-random-route-0b432307-e899-46b6-b83a-cc5d7fb60f0e--554521683334033463-20-0.1" type="actor-car--5813270397586555039" depart="120.00" departLane="0" departPos="77.88" departSpeed="max" arrivalLane="0" arrivalPos="57.89">
        <route edges="gneE21 gneE22 gneE23 gneE24 gneE25 gneE26 gneE27 gneE29 gneE30 gneE15"/>
    </vehicle>
    <vehicle id="-flow-random-route-192a552a-11d5-4100-acd7-7d4ae8613228--554521683334033463-17-0.1" type="actor-car--5813270397586555039" depart="120.00" departLane="0" departPos="56.63" departSpeed="max" arrivalLane="0" arrivalPos="4.62">
        <route edges="-gneE27 -gneE26 -gneE25 -gneE24 -gneE23 -gneE22 -gneE21 -gneE20 -gneE19 -gneE18"/>
    </vehicle>
    <vehicle id="-flow-random-route-1a8a0508-dc47-4103-b75d-f14584cedc0e--554521683334033463-3-0.1" type="actor-car--5813270397586555039" depart="120.00" departLane="0" departPos="17.40" departSpeed="max" arrivalLane="0" arrivalPos="96.17">
        <route edges="-gneE24 -gneE23 -gneE22 -gneE21 -gneE20 -gneE19 -gneE18 -gneE17 gneE16 -gneE15"/>
    </vehicle>
    <vehicle id="-flow-random-route-1fceff1a-a3a7-46c7-a39d-c1b9fac0b86a--554521683334033463-10-0.1" type="actor-car--5813270397586555039" depart="120.00" departLane="0" departPos="144.99" departSpeed="max" arrivalLane="0" arrivalPos="77.52">
        <route edges="gneE17 gneE18 gneE19 gneE20 gneE21 gneE22 gneE23 gneE24 gneE25 gneE26"/>
    </vehicle>
    <vehicle id="-flow-random-route-30542609-7531-4a52-b457-f373e6abf5ad--554521683334033463-5-0.1" type="actor-car--5813270397586555039" depart="120.00" departLane="0" departPos="105.11" departSpeed="max" arrivalLane="0" arrivalPos="17.24">
        <route edges="-gneE19 -gneE18 -gneE17 gneE16 -gneE15 -gneE30 -gneE29 -gneE27 -gneE26 -gneE25"/>
    </vehicle>
    <vehicle id="-flow-random-route-34fc0290-ce45-4a67-afd7-035e05d1f09e--554521683334033463-14-0.1" type="actor-car--5813270397586555039" depart="120.00" departLane="0" departPos="88.50" departSpeed="max" arrivalLane="0" arrivalPos="60.81">
        <route edges="-gneE18 -gneE17 gneE16 -gneE15 -gneE30 -gneE29 -gneE27 -gneE26 -gneE25 -gneE24"/>
    </vehicle>
    <vehicle id="-flow-random-route-386b17b8-a279-4e40-87ac-cdec3d07d760--554521683334033463-23-0.1" type="actor-car--5813270397586555039" depart="120.00" departLane="0" departPos="27.61" departSpeed="max" arrivalLane="0" arrivalPos="93.20">
        <route edges="-gneE22 -gneE21 -gneE20 -gneE19 -gneE18 -gneE17 gneE16 -gneE15 -gneE30 -gneE29"/>
    </vehicle>
    <vehicle id="-flow-random-route-434f512b-d189-438e-831b-09d873f893c2--554521683334033463-19-0.1" type="actor-car--5813270397586555039" depart="120.00" departLane="0" departPos="83.12" departSpeed="max" arrivalLane="0" arrivalPos="25.77">
        <route edges="gneE21 gneE22 gneE23 gneE24 gneE25 gneE26 gneE27 gneE29 gneE30 gneE15"/>
    </vehicle>
    <vehicle id="-flow-random-route-48043fa4-5d7b-40b0-a416-3233ae1fa58d--554521683334033463-22-0.1" type="actor-car--5813270397586555039" depart="120.00" departLane="0" departPos="40.73" departSpeed="max" arrivalLane="0" arrivalPos="60.66">
        <route edges="gneE25 gneE26 gneE27 gneE29 gneE30 gneE15 -gneE16 gneE17 gneE18 gneE19"/>
    </vehicle>
    <vehicle id="-flow-random-route-554992a5-f06d-489f-8e4c-6ea9441ea6e5--554521683334033463-13-0.1" type="actor-car--5813270397586555039" depart="120.00" departLane="0" departPos="44.07" departSpeed="max" arrivalLane="0" arrivalPos="66.27">
        <route edges="-gneE21 -gneE20 -gneE19 -gneE18 -gneE17 gneE16 -gneE15 -gneE30 -gneE29 -gneE27"/>
    </vehicle>
    <vehicle id="-flow-random-route-6df93d50-a884-4a69-9973-6082ea625e85--554521683334033463-27-0.1" type="actor-car--5813270397586555039" depart="120.00" departLane="0" departPos="21.77" departSpeed="max" arrivalLane="0" arrivalPos="97.38">
        <route edges="-gneE22 -gneE21 -gneE20 -gneE19 -gneE18 -gneE17 gneE16 -gneE15 -gneE30 -gneE29"/>
    </vehicle>
    <vehicle id="-flow-random-route-87059667-ab9a-4598-90c4-29ab12a5c3c5--554521683334033463-8-0.1" type="actor-car--5813270397586555039" depart="120.00" departLane="0" departPos="116.71" departSpeed="max" arrivalLane="0" arrivalPos="98.75">
        <route edges="-gneE23 -gneE22 -gneE21 -gneE20 -gneE19 -gneE18 -gneE17 gneE16 -gneE15 -gneE30"/>
    </vehicle>
    <vehicle id="-flow-random-route-8ac71af1-665d-472d-a815-f57cad4cee04--554521683334033463-29-0.1" type="actor-car--5813270397586555039" depart="120.00" departLane="0" departPos="45.33" departSpeed="max" arrivalLane="0" arrivalPos="107.16">
        <route edges="-gneE20 -gneE19 -gneE18 -gneE17 gneE16 -gneE15 -gneE30 -gneE29 -gneE27 -gneE26"/>
    </vehicle>
    <vehicle id="-flow-random-route-90d9e028-ad39-42a2-b08b-efb5e2d0053a--554521683334033463-9-0.1" type="actor-car--5813270397586555039" depart="120.00" departLane="0" departPos="60.38" departSpeed="max" arrivalLane="0" arrivalPos="15.85">
        <route edges="-gneE21 -gneE20 -gneE19 -gneE18 -gneE17 gneE16 -gneE15 -gneE30 -gneE29 -gneE27"/>
    </vehicle>
    <vehicle id="-flow-random-route-9a345bcd-823b-440d-80ce-4200c78f60ed--554521683334033463-4-0.1" type="actor-car--5813270397586555039" depart="120.00" departLane="0" departPos="2.67" departSpeed="max" arrivalLane="0" arrivalPos="102.26">
        <route edges="gneE16 -gneE15 -gneE30 -gneE29 -gneE27 -gneE26 -gneE25 -gneE24 -gneE23 -gneE22"/>
    </vehicle>
    <vehicle id="-flow-random-route-9babd604-9213-435b-9ad8-faf1d47f74ac--554521683334033463-2-0.1" type="actor-car--5813270397586555039" depart="120.00" departLane="0" departPos="0.71" departSpeed="max" arrivalLane="0" arrivalPos="23.06">
        <route edges="-gneE27 -gneE26 -gneE25 -gneE24 -gneE23 -gneE22 -gneE21 -gneE20 -gneE19 -gneE18"/>
    </vehicle>
    <vehicle id="-flow-random-route-9bdcd724-c81d-4b6e-b838-642baa290688--554521683334033463-15-0.1" type="actor-car--5813270397586555039" depart="120.00" departLane="0" departPos="61.04" departSpeed="max" arrivalLane="0" arrivalPos="38.40">
        <route edges="gneE15 -gneE16 gneE17 gneE18 gneE19 gneE20 gneE21 gneE22 gneE23 gneE24"/>
    </vehicle>
    <vehicle id="-flow-random-route-ae27d6e4-19ee-4ce1-b31d-7d3f3611d1a5--554521683334033463-6-0.1" type="actor-car--5813270397586555039" depart="120.00" departLane="0" departPos="223.69" departSpeed="max" arrivalLane="0" arrivalPos="52.63">
        <route edges="-gneE24 -gneE23 -gneE22 -gneE21 -gneE20 -gneE19 -gneE18 -gneE17 gneE16 -gneE15"/>
    </vehicle>
    <vehicle id="-flow-random-route-b13e3acf-d6fd-44d1-9091-01b0c1396c95--554521683334033463-0-0.1" type="actor-car--5813270397586555039" depart="120.00" departLane="0" departPos="163.69" departSpeed="max" arrivalLane="0" arrivalPos="91.48">
        <route edges="-gneE23 -gneE22 -gneE21 -gneE20 -gneE19 -gneE18 -gneE17 gneE16 -gneE15 -gneE30"/>
    </vehicle>
    <vehicle id="-flow-random-route-b6cd98f1-e9f8-4f4f-84ca-26748cf717b9--554521683334033463-11-0.1" type="actor-car--5813270397586555039" depart="120.00" departLane="0" departPos="37.74" departSpeed="max" arrivalLane="0" arrivalPos="53.29">
        <route edges="-gneE27 -gneE26 -gneE25 -gneE24 -gneE23 -gneE22 -gneE21 -gneE20 -gneE19 -gneE18"/>
    </vehicle>
    <vehicle id="-flow-random-route-b8127e03-a674-410e-84bc-cdab46c191e7--554521683334033463-28-0.1" type="actor-car--5813270397586555039" depart="120.00" departLane="0" departPos="42.35" departSpeed="max" arrivalLane="0" arrivalPos="25.30">
        <route edges="-gneE29 -gneE27 -gneE26 -gneE25 -gneE24 -gneE23 -gneE22 -gneE21 -gneE20 -gneE19"/>
    </vehicle>
    <vehicle id="-flow-random-route-be5a0598-ff22-4c8c-8f25-107901c9ae42--554521683334033463-1-0.1" type="actor-car--5813270397586555039" depart="120.00" departLane="0" departPos="112.05" departSpeed="max" arrivalLane="0" arrivalPos="10.17">
        <route edges="gneE29 gneE30 gneE15 -gneE16 gneE17 gneE18 gneE19 gneE20 gneE21 gneE22"/>
    </vehicle>
    <vehicle id="-flow-random-route-cb6f2f94-98d0-42ca-8d4a-90993d6aab45--554521683334033463-25-0.1" type="actor-car--5813270397586555039" depart="120.00" departLane="0" departPos="96.54" departSpeed="max" arrivalLane="0" arrivalPos="98.93">
        <route edges="-gneE22 -gneE21 -gneE20 -gneE19 -gneE18 -gneE17 gneE16 -gneE15 -gneE30 -gneE29"/>
    </vehicle>
    <vehicle id="-flow-random-route-cbe9a915-0093-46cc-82a4-d09eccb65d8d--554521683334033463-7-0.1" type="actor-car--5813270397586555039" depart="120.00" departLane="0" departPos="96.78" departSpeed="max" arrivalLane="0" arrivalPos="47.56">
        <route edges="gneE22 gneE23 gneE24 gneE25 gneE26 gneE27 gneE29 gneE30 gneE15 -gneE16"/>
    </vehicle>
    <vehicle id="-flow-random-route-cf4c0282-b1a9-4e77-94c8-b1d8381a0941--554521683334033463-12-0.1" type="actor-car--5813270397586555039" depart="120.00" departLane="0" departPos="109.30" departSpeed="max" arrivalLane="0" arrivalPos="207.34">
        <route edges="-gneE17 gneE16 -gneE15 -gneE30 -gneE29 -gneE27 -gneE26 -gneE25 -gneE24 -gneE23"/>
    </vehicle>
    <vehicle id="-flow-random-route-d55117dc-cd6f-4259-8838-faeed6c96fa8--554521683334033463-21-0.1" type="actor-car--5813270397586555039" depart="120.00" departLane="0" departPos="23.57" departSpeed="max" arrivalLane="0" arrivalPos="77.39">
        <route edges="gneE21 gneE22 gneE23 gneE24 gneE25 gneE26 gneE27 gneE29 gneE30 gneE15"/>
    </vehicle>
    <vehicle id="-flow-random-route-d9b31781-0dfd-460a-8e79-18d5f53ee0a2--554521683334033463-18-0.1" type="actor-car--5813270397586555039" depart="120.00" departLane="0" departPos="103.25" departSpeed="max" arrivalLane="0" arrivalPos="10.80">
        <route edges="gneE22 gneE23 gneE24 gneE25 gneE26 gneE27 gneE29 gneE30 gneE15 -gneE16"/>
    </vehicle>
    <vehicle id="-flow-random-route-ef5eb23b-4c62-417c-b191-4b693cd83656--554521683334033463-16-0.1" type="actor-car--5813270397586555039" depart="120.00" departLane="0" departPos="54.24" departSpeed="max" arrivalLane="0" arrivalPos="144.61">
        <route edges="-gneE30 -gneE29 -gneE27 -gneE26 -gneE25 -gneE24 -gneE23 -gneE22 -gneE21 -gneE20"/>
    </vehicle>
    <vehicle id="-flow-random-route-f566ebab-8d5e-4776-a6a5-1d90360100f7--554521683334033463-26-0.1" type="actor-car--5813270397586555039" depart="120.00" departLane="0" departPos="69.80" departSpeed="max" arrivalLane="0" arrivalPos="76.74">
        <route edges="-gneE21 -gneE20 -gneE19 -gneE18 -gneE17 gneE16 -gneE15 -gneE30 -gneE29 -gneE27"/>
    </vehicle>
    <vehicle id="-flow-random-route-f6dd51a4-6ebe-4fa5-bd96-cd347144923f--554521683334033463-24-0.1" type="actor-car--5813270397586555039" depart="120.00" departLane="0" departPos="85.17" departSpeed="max" arrivalLane="0" arrivalPos="24.41">
        <route edges="gneE19 gneE20 gneE21 gneE22 gneE23 gneE24 gneE25 gneE26 gneE27 gneE29"/>
    </vehicle>
    <vehicle id="-flow-random-route-0b432307-e899-46b6-b83a-cc5d7fb60f0e--554521683334033463-20-0.2" type="actor-car--5813270397586555039" depart="240.00" departLane="0" departPos="77.88" departSpeed="max" arrivalLane="0" arrivalPos="57.89">
        <route edges="gneE21 gneE22 gneE23 gneE24 gneE25 gneE26 gneE27 gneE29 gneE30 gneE15"/>
    </vehicle>
    <vehicle id="-flow-random-route-192a552a-11d5-4100-acd7-7d4ae8613228--554521683334033463-17-0.2" type="actor-car--5813270397586555039" depart="240.00" departLane="0" departPos="56.63" departSpeed="max" arrivalLane="0" arrivalPos="4.62">
        <route edges="-gneE27 -gneE26 -gneE25 -gneE24 -gneE23 -gneE22 -gneE21 -gneE20 -gneE19 -gneE18"/>
    </vehicle>
    <vehicle id="-flow-random-route-1a8a0508-dc47-4103-b75d-f14584cedc0e--554521683334033463-3-0.2" type="actor-car--5813270397586555039" depart="240.00" departLane="0" departPos="17.40" departSpeed="max" arrivalLane="0" arrivalPos="96.17">
        <route edges="-gneE24 -gneE23 -gneE22 -gneE21 -gneE20 -gneE19 -gneE18 -gneE17 gneE16 -gneE15"/>
    </vehicle>
    <vehicle id="-flow-random-route-1fceff1a-a3a7-46c7-a39d-c1b9fac0b86a--554521683334033463-10-0.2" type="actor-car--5813270397586555039" depart="240.00" departLane="0" departPos="144.99" departSpeed="max" arrivalLane="0" arrivalPos="77.52">
        <route edges="gneE17 gneE18 gneE19 gneE20 gneE21 gneE22 gneE23 gneE24 gneE25 gneE26"/>
    </vehicle>
    <vehicle id="-flow-random-route-30542609-7531-4a52-b457-f373e6abf5ad--554521683334033463-5-0.2" type="actor-car--5813270397586555039" depart="240.00" departLane="0" departPos="105.11" departSpeed="max" arrivalLane="0" arrivalPos="17.24">
        <route edges="-gneE19 -gneE18 -gneE17 gneE16 -gneE15 -gneE30 -gneE29 -gneE27 -gneE26 -gneE25"/>
    </vehicle>
    <vehicle id="-flow-random-route-34fc0290-ce45-4a67-afd7-035e05d1f09e--554521683334033463-14-0.2" type="actor-car--5813270397586555039" depart="240.00" departLane="0" departPos="88.50" departSpeed="max" arrivalLane="0" arrivalPos="60.81">
        <route edges="-gneE18 -gneE17 gneE16 -gneE15 -gneE30 -gneE29 -gneE27 -gneE26 -gneE25 -gneE24"/>
    </vehicle>
    <vehicle id="-flow-random-route-386b17b8-a279-4e40-87ac-cdec3d07d760--554521683334033463-23-0.2" type="actor-car--5813270397586555039" depart="240.00" departLane="0" departPos="27.61" departSpeed="max" arrivalLane="0" arrivalPos="93.20">
        <route edges="-gneE22 -gneE21 -gneE20 -gneE19 -gneE18 -gneE17 gneE16 -gneE15 -gneE30 -gneE29"/>
    </vehicle>
    <vehicle id="-flow-random-route-434f512b-d189-438e-831b-09d873f893c2--554521683334033463-19-0.2" type="actor-car--5813270397586555039" depart="240.00" departLane="0" departPos="83.12" departSpeed="max" arrivalLane="0" arrivalPos="25.77">
        <route edges="gneE21 gneE22 gneE23 gneE24 gneE25 gneE26 gneE27 gneE29 gneE30 gneE15"/>
    </vehicle>
    <vehicle id="-flow-random-route-48043fa4-5d7b-40b0-a416-3233ae1fa58d--554521683334033463-22-0.2" type="actor-car--5813270397586555039" depart="240.00" departLane="0" departPos="40.73" departSpeed="max" arrivalLane="0" arrivalPos="60.66">
        <route edges="gneE25 gneE26 gneE27 gneE29 gneE30 gneE15 -gneE16 gneE17 gneE18 gneE19"/>
    </vehicle>
    <vehicle id="-flow-random-route-554992a5-f06d-489f-8e4c-6ea9441ea6e5--554521683334033463-13-0.2" type="actor-car--5813270397586555039" depart="240.00" departLane="0" departPos="44.07" departSpeed="max" arrivalLane="0" arrivalPos="66.27">
        <route edges="-gneE21 -gneE20 -gneE19 -gneE18 -gneE17 gneE16 -gneE15 -gneE30 -gneE29 -gneE27"/>
    </vehicle>
    <vehicle id="-flow-random-route-6df93d50-a884-4a69-9973-6082ea625e85--554521683334033463-27-0.2" type="actor-car--5813270397586555039" depart="240.00" departLane="0" departPos="21.77" departSpeed="max" arrivalLane="0" arrivalPos="97.38">
        <route edges="-gneE22 -gneE21 -gneE20 -gneE19 -gneE18 -gneE17 gneE16 -gneE15 -gneE30 -gneE29"/>
    </vehicle>
    <vehicle id="-flow-random-route-87059667-ab9a-4598-90c4-29ab12a5c3c5--554521683334033463-8-0.2" type="actor-car--5813270397586555039" depart="240.00" departLane="0" departPos="116.71" departSpeed="max" arrivalLane="0" arrivalPos="98.75">
        <route edges="-gneE23 -gneE22 -gneE21 -gneE20 -gneE19 -gneE18 -gneE17 gneE16 -gneE15 -gneE30"/>
    </vehicle>
    <vehicle id="-flow-random-route-8ac71af1-665d-472d-a815-f57cad4cee04--554521683334033463-29-0.2" type="actor-car--5813270397586555039" depart="240.00" departLane="0" departPos="45.33" departSpeed="max" arrivalLane="0" arrivalPos="107.16">
        <route edges="-gneE20 -gneE19 -gneE18 -gneE17 gneE16 -gneE15 -gneE30 -gneE29 -gneE27 -gneE26"/>
    </vehicle>
    <vehicle id="-flow-random-route-90d9e028-ad39-42a2-b08b-efb5e2d0053a--554521683334033463-9-0.2" type="actor-car--5813270397586555039" depart="240.00" departLane="0" departPos="60.38" departSpeed="max" arrivalLane="0" arrivalPos="15.85">
        <route edges="-gneE21 -gneE20 -gneE19 -gneE18 -gneE17 gneE16 -gneE15 -gneE30 -gneE29 -gneE27"/>
    </vehicle>
    <vehicle id="-flow-random-route-9a345bcd-823b-440d-80ce-4200c78f60ed--554521683334033463-4-0.2" type="actor-car--5813270397586555039" depart="240.00" departLane="0" departPos="2.67" departSpeed="max" arrivalLane="0" arrivalPos="102.26">
        <route edges="gneE16 -gneE15 -gneE30 -gneE29 -gneE27 -gneE26 -gneE25 -gneE24 -gneE23 -gneE22"/>
    </vehicle>
    <vehicle id="-flow-random-route-9babd604-9213-435b-9ad8-faf1d47f74ac--554521683334033463-2-0.2" type="actor-car--5813270397586555039" depart="240.00" departLane="0" departPos="0.71" departSpeed="max" arrivalLane="0" arrivalPos="23.06">
        <route edges="-gneE27 -gneE26 -gneE25 -gneE24 -gneE23 -gneE22 -gneE21 -gneE20 -gneE19 -gneE18"/>
    </vehicle>
    <vehicle id="-flow-random-route-9bdcd724-c81d-4b6e-b838-642baa290688--554521683334033463-15-0.2" type="actor-car--5813270397586555039" depart="240.00" departLane="0" departPos="61.04" departSpeed="max" arrivalLane="0" arrivalPos="38.40">
        <route edges="gneE15 -gneE16 gneE17 gneE18 gneE19 gneE20 gneE21 gneE22 gneE23 gneE24"/>
    </vehicle>
    <vehicle id="-flow-random-route-ae27d6e4-19ee-4ce1-b31d-7d3f3611d1a5--554521683334033463-6-0.2" type="actor-car--5813270397586555039" depart="240.00" departLane="0" departPos="223.69" departSpeed="max" arrivalLane="0" arrivalPos="52.63">
        <route edges="-gneE24 -gneE23 -gneE22 -gneE21 -gneE20 -gneE19 -gneE18 -gneE17 gneE16 -gneE15"/>
    </vehicle>
    <vehicle id="-flow-random-route-b13e3acf-d6fd-44d1-9091-01b0c1396c95--554521683334033463-0-0.2" type="actor-car--5813270397586555039" depart="240.00" departLane="0" departPos="163.69" departSpeed="max" arrivalLane="0" arrivalPos="91.48">
        <route edges="-gneE23 -gneE22 -gneE21 -gneE20 -gneE19 -gneE18 -gneE17 gneE16 -gneE15 -gneE30"/>
    </vehicle>
    <vehicle id="-flow-random-route-b6cd98f1-e9f8-4f4f-84ca-26748cf717b9--554521683334033463-11-0.2" type="actor-car--5813270397586555039" depart="240.00" departLane="0" departPos="37.74" departSpeed="max" arrivalLane="0" arrivalPos="53.29">
        <route edges="-gneE27 -gneE26 -gneE25 -gneE24 -gneE23 -gneE22 -gneE21 -gneE20 -gneE19 -gneE18"/>
    </vehicle>