<?xml version="1.0" encoding="UTF-8"?>

<!-- generated on Fri Sep 18 07:46:34 2020 by Eclipse SUMO duarouter Version 1.6.0
<configuration xmlns:xsi="http://www.w3.org/2001/XMLSchema-instance" xsi:noNamespaceSchemaLocation="http://sumo.dlr.de/xsd/duarouterConfiguration.xsd">

    <input>
        <net-file value="demo5/map.net.xml"/>
        <route-files value="/tmp/tmph06wi52r/trips.trips.xml"/>
    </input>

    <output>
        <output-file value="demo5/traffic/30_patient_car.rou.xml"/>
        <alternatives-output value="demo5/traffic/30_patient_car.rou.alt.xml"/>
    </output>

    <processing>
        <unsorted-input value="true"/>
        <repair value="true"/>
    </processing>

    <report>
        <error-log value="/tmp/smarts/_duarouter_routing/traffic/30_patient_car.log"/>
        <no-step-log value="true"/>
    </report>

    <random_number>
        <seed value="42"/>
    </random_number>

</configuration>
-->

<routes xmlns:xsi="http://www.w3.org/2001/XMLSchema-instance" xsi:noNamespaceSchemaLocation="http://sumo.dlr.de/xsd/routes_file.xsd">
    <vType id="actor-car--8108581479115277872" minGap="2.50" speedFactor="normc(0.50,0.20,0.20,2.00)" vClass="passenger" impatience="0.50" lcCooperative="0.5" lcImpatience="0" jmDriveAfterYellowTime="1.0" accel="2.6" decel="4.5" sigma="0.5"/>
    <vehicle id="-flow-random-route-0ec18b74-46bf-4111-8615-1e869c6792b0--2980517453519304780-8-0.0" type="actor-car--8108581479115277872" depart="0.00" departLane="0" departPos="34.04" departSpeed="max" arrivalLane="1" arrivalPos="7.75">
        <route edges="-gneE38 gneE33 gneE32 -gneE34 gneE38 gneE40 -gneE39"/>
    </vehicle>
    <vehicle id="-flow-random-route-1670c53a-d5c9-420e-ae40-a15d2043b2f9--2980517453519304780-9-0.0" type="actor-car--8108581479115277872" depart="0.00" departLane="1" departPos="77.74" departSpeed="max" arrivalLane="0" arrivalPos="0.78">
        <route edges="gneE36 -gneE37 gneE34 -gneE32 -gneE33 gneE38 gneE40 -gneE39 gneE35 gneE36"/>
    </vehicle>
    <vehicle id="-flow-random-route-19cc08b5-bf10-48d4-9a9f-7832930ceba5--2980517453519304780-6-0.0" type="actor-car--8108581479115277872" depart="0.00" departLane="1" departPos="41.87" departSpeed="max" arrivalLane="0" arrivalPos="30.96">
        <route edges="-gneE39 gneE38 gneE40 -gneE39"/>
    </vehicle>
    <vehicle id="-flow-random-route-1f03913b-058a-436d-b18a-d8f0027b9fec--2980517453519304780-20-0.0" type="actor-car--8108581479115277872" depart="0.00" departLane="1" departPos="25.52" departSpeed="max" arrivalLane="0" arrivalPos="17.42">
        <route edges="gneE33 gneE32 -gneE34 gneE37"/>
    </vehicle>
    <vehicle id="-flow-random-route-21358963-834f-4332-9621-eb4435fa8773--2980517453519304780-14-0.0" type="actor-car--8108581479115277872" depart="0.00" departLane="1" departPos="46.68" departSpeed="max" arrivalLane="0" arrivalPos="3.34">
        <route edges="gneE35 gneE36 -gneE37 gneE34 -gneE32 -gneE33 gneE37 -gneE36 -gneE35 gneE33"/>
    </vehicle>
    <vehicle id="-flow-random-route-22f134f4-bfdb-49b3-bacd-5390fcc25567--2980517453519304780-27-0.0" type="actor-car--8108581479115277872" depart="0.00" departLane="0" departPos="49.40" departSpeed="max" arrivalLane="0" arrivalPos="37.01">
        <route edges="-gneE40 -gneE38 gneE39 -gneE40 -gneE38 gneE35 gneE36 -gneE37 gneE38 gneE40"/>
    </vehicle>
    <vehicle id="-flow-random-route-266a1a83-a4cf-48d8-8cd8-6852ed788585--2980517453519304780-26-0.0" type="actor-car--8108581479115277872" depart="0.00" departLane="0" departPos="16.68" departSpeed="max" arrivalLane="1" arrivalPos="33.06">
        <route edges="-gneE38 gneE33 gneE32 -gneE34"/>
    </vehicle>
    <vehicle id="-flow-random-route-2b184dff-496f-46bb-973e-e2743b3f03be--2980517453519304780-23-0.0" type="actor-car--8108581479115277872" depart="0.00" departLane="0" departPos="16.21" departSpeed="max" arrivalLane="0" arrivalPos="50.44">
        <route edges="-gneE40 -gneE38 gneE37 -gneE36 -gneE35 gneE37 -gneE36 -gneE35 gneE33 gneE32"/>
    </vehicle>
    <vehicle id="-flow-random-route-495a5c8e-fcf0-4d66-9568-6716e8aa3d96--2980517453519304780-29-0.0" type="actor-car--8108581479115277872" depart="0.00" departLane="0" departPos="29.30" departSpeed="max" arrivalLane="0" arrivalPos="55.58">
        <route edges="gneE39 -gneE40 -gneE38 gneE39 -gneE40 -gneE38 gneE39 -gneE40 -gneE38 gneE35"/>
    </vehicle>
    <vehicle id="-flow-random-route-4c54cfbe-ecbc-4019-8325-16f602e962d7--2980517453519304780-10-0.0" type="actor-car--8108581479115277872" depart="0.00" departLane="0" departPos="73.17" departSpeed="max" arrivalLane="0" arrivalPos="19.24">
        <route edges="-gneE35 gneE34 -gneE32 -gneE33 gneE35 gneE36 -gneE37 gneE38 gneE40 -gneE39"/>
    </vehicle>
    <vehicle id="-flow-random-route-561770f3-3c3b-4963-81d1-0b8bb9a16e42--2980517453519304780-1-0.0" type="actor-car--8108581479115277872" depart="0.00" departLane="0" departPos="2.55" departSpeed="max" arrivalLane="1" arrivalPos="54.67">
        <route edges="gneE38 gneE40 -gneE39 gneE37 -gneE36 -gneE35 gneE38 gneE40 -gneE39 gneE34"/>
    </vehicle>
    <vehicle id="-flow-random-route-6674186e-8e37-47b4-a33a-e2787fdc2337--2980517453519304780-12-0.0" type="actor-car--8108581479115277872" depart="0.00" departLane="1" departPos="64.24" departSpeed="max" arrivalLane="0" arrivalPos="32.63">
        <route edges="gneE40 -gneE39 gneE37 -gneE36"/>
    </vehicle>
    <vehicle id="-flow-random-route-7cc6c405-a8c9-4609-8028-ae94cbcb5692--2980517453519304780-15-0.0" type="actor-car--8108581479115277872" depart="0.00" departLane="0" departPos="38.76" departSpeed="max" arrivalLane="0" arrivalPos="30.21">
        <route edges="-gneE39 gneE34 -gneE32 -gneE33 gneE37 -gneE36 -gneE35 gneE39 -gneE40 -gneE38"/>
    </vehicle>
    <vehicle id="-flow-random-route-80e4c8d4-aa62-4a52-a08c-9904e34d5bc0--2980517453519304780-7-0.0" type="actor-car--8108581479115277872" depart="0.00" departLane="0" departPos="24.38" departSpeed="max" arrivalLane="0" arrivalPos="25.29">
        <route edges="gneE38 gneE40 -gneE39 gneE38 gneE40 -gneE39 gneE37 -gneE36 -gneE35 gneE39"/>
    </vehicle>
    <vehicle id="-flow-random-route-815e3283-cfe4-4f29-94b5-2244983d73bf--2980517453519304780-17-0.0" type="actor-car--8108581479115277872" depart="0.00" departLane="0" departPos="77.74" departSpeed="max" arrivalLane="1" arrivalPos="17.02">
        <route edges="-gneE35 gneE38 gneE40 -gneE39 gneE33 gneE32 -gneE34"/>
    </vehicle>
    <vehicle id="-flow-random-route-983a98f5-34f1-4087-8b27-f4014567f44c--2980517453519304780-0-0.0" type="actor-car--8108581479115277872" depart="0.00" departLane="0" departPos="63.02" departSpeed="max" arrivalLane="0" arrivalPos="1.78">
        <route edges="gneE37 -gneE36 -gneE35 gneE34 -gneE32 -gneE33 gneE35 gneE36 -gneE37 gneE33"/>
    </vehicle>
    <vehicle id="-flow-random-route-9ac6b9e1-c96f-4eb4-bf5e-cd602e1b61e2--2980517453519304780-22-0.0" type="actor-car--8108581479115277872" depart="0.00" departLane="0" departPos="68.14" departSpeed="max" arrivalLane="1" arrivalPos="8.84">
        <route edges="gneE40 -gneE39 gneE35 gneE36 -gneE37 gneE35 gneE36 -gneE37 gneE34 -gneE32"/>
    </vehicle>
    <vehicle id="-flow-random-route-9b3f5ee2-b415-4b75-af80-aeb551da3a78--2980517453519304780-25-0.0" type="actor-car--8108581479115277872" depart="0.00" departLane="1" departPos="28.65" departSpeed="max" arrivalLane="1" arrivalPos="39.47">
        <route edges="gneE40 -gneE39 gneE33 gneE32 -gneE34 gneE37 -gneE36 -gneE35 gneE38 gneE40"/>
    </vehicle>
    <vehicle id="-flow-random-route-a62acabf-9745-4793-a37f-f43486b88612--2980517453519304780-11-0.0" type="actor-car--8108581479115277872" depart="0.00" departLane="0" departPos="47.58" departSpeed="max" arrivalLane="0" arrivalPos="2.99">
        <route edges="gneE35 gneE36 -gneE37 gneE39 -gneE40 -gneE38 gneE37 -gneE36 -gneE35 gneE38"/>
    </vehicle>
    <vehicle id="-flow-random-route-aac58498-42f9-45ef-b9cf-088696bb624c--2980517453519304780-16-0.0" type="actor-car--8108581479115277872" depart="0.00" departLane="1" departPos="9.10" departSpeed="max" arrivalLane="1" arrivalPos="49.49">
        <route edges="-gneE39 gneE33 gneE32 -gneE34 gneE38 gneE40 -gneE39 gneE34 -gneE32 -gneE33"/>
    </vehicle>
    <vehicle id="-flow-random-route-c0edd072-c0d1-4560-880e-5aaf158aecd2--2980517453519304780-5-0.0" type="actor-car--8108581479115277872" depart="0.00" departLane="0" departPos="31.11" departSpeed="max" arrivalLane="1" arrivalPos="42.78">
        <route edges="gneE35 gneE36 -gneE37 gneE33 gneE32 -gneE34 gneE38 gneE40 -gneE39 gneE35"/>
    </vehicle>
    <vehicle id="-flow-random-route-c1d52606-5aae-4dc7-a03e-8393df3b7d9f--2980517453519304780-2-0.0" type="actor-car--8108581479115277872" depart="0.00" departLane="0" departPos="62.16" departSpeed="max" arrivalLane="0" arrivalPos="12.65">
        <route edges="-gneE33 gneE39 -gneE40 -gneE38 gneE39 -gneE40 -gneE38 gneE34 -gneE32 -gneE33"/>
    </vehicle>
    <vehicle id="-flow-random-route-c5ef9b31-e7be-4aa0-af59-7c882d0e7276--2980517453519304780-21-0.0" type="actor-car--8108581479115277872" depart="0.00" departLane="1" departPos="69.76" departSpeed="max" arrivalLane="1" arrivalPos="51.18">
        <route edges="-gneE35 gneE33 gneE32 -gneE34 gneE39 -gneE40 -gneE38 gneE37 -gneE36 -gneE35"/>
    </vehicle>
    <vehicle id="-flow-random-route-ccfff654-f022-4a84-8225-094944cfb4eb--2980517453519304780-28-0.0" type="actor-car--8108581479115277872" depart="0.00" departLane="0" departPos="51.01" departSpeed="max" arrivalLane="1" arrivalPos="20.33">
        <route edges="-gneE33 gneE38 gneE40 -gneE39 gneE33 gneE32 -gneE34 gneE37 -gneE36 -gneE35"/>
    </vehicle>
    <vehicle id="-flow-random-route-d105a432-989d-4831-8f95-5d977f09da25--2980517453519304780-24-0.0" type="actor-car--8108581479115277872" depart="0.00" departLane="0" departPos="3.50" departSpeed="max" arrivalLane="1" arrivalPos="77.73">
        <route edges="gneE36 -gneE37 gneE35 gneE36 -gneE37 gneE39 -gneE40 -gneE38 gneE34 -gneE32"/>
    </vehicle>
    <vehicle id="-flow-random-route-d13e3ae5-f705-4274-9a93-4bc689aef474--2980517453519304780-3-0.0" type="actor-car--8108581479115277872" depart="0.00" departLane="1" departPos="53.11" departSpeed="max" arrivalLane="1" arrivalPos="34.84">
        <route edges="-gneE34 gneE39 -gneE40 -gneE38"/>
    </vehicle>
    <vehicle id="-flow-random-route-d16eacc5-7897-464b-b6d1-fa5420d1fc37--2980517453519304780-4-0.0" type="actor-car--8108581479115277872" depart="0.00" departLane="1" departPos="11.26" departSpeed="max" arrivalLane="1" arrivalPos="47.51">
        <route edges="-gneE40 -gneE38 gneE35 gneE36 -gneE37 gneE38 gneE40 -gneE39 gneE37 -gneE36"/>
    </vehicle>
    <vehicle id="-flow-random-route-d2b52533-5311-43be-ab5d-c387573e6a66--2980517453519304780-13-0.0" type="actor-car--8108581479115277872" depart="0.00" departLane="0" departPos="58.42" departSpeed="max" arrivalLane="1" arrivalPos="30.62">
        <route edges="-gneE34 gneE33 gneE32 -gneE34 gneE39 -gneE40 -gneE38 gneE35 gneE36 -gneE37"/>
    </vehicle>
    <vehicle id="-flow-random-route-dfefd3a8-2733-4003-b66c-12efc759315a--2980517453519304780-18-0.0" type="actor-car--8108581479115277872" depart="0.00" departLane="0" departPos="60.47" departSpeed="max" arrivalLane="0" arrivalPos="4.05">
        <route edges="gneE35 gneE36 -gneE37 gneE34 -gneE32 -gneE33 gneE38 gneE40 -gneE39 gneE35"/>
    </vehicle>
    <vehicle id="-flow-random-route-efe004da-6fdf-41b7-842b-7b5ecec396d1--2980517453519304780-19-0.0" type="actor-car--8108581479115277872" depart="0.00" departLane="1" departPos="69.19" departSpeed="max" arrivalLane="0" arrivalPos="35.38">
        <route edges="gneE40 -gneE39 gneE37 -gneE36 -gneE35 gneE33 gneE32 -gneE34 gneE39 -gneE40"/>
    </vehicle>
    <vehicle id="-flow-random-route-0ec18b74-46bf-4111-8615-1e869c6792b0--2980517453519304780-8-0.1" type="actor-car--8108581479115277872" depart="120.00" departLane="0" departPos="34.04" departSpeed="max" arrivalLane="1" arrivalPos="7.75">
        <route edges="-gneE38 gneE33 gneE32 -gneE34 gneE38 gneE40 -gneE39"/>
    </vehicle>
    <vehicle id="-flow-random-route-1670c53a-d5c9-420e-ae40-a15d2043b2f9--2980517453519304780-9-0.1" type="actor-car--8108581479115277872" depart="120.00" departLane="1" departPos="77.74" departSpeed="max" arrivalLane="0" arrivalPos="0.78">
        <route edges="gneE36 -gneE37 gneE34 -gneE32 -gneE33 gneE38 gneE40 -gneE39 gneE35 gneE36"/>
    </vehicle>
    <vehicle id="-flow-random-route-19cc08b5-bf10-48d4-9a9f-7832930ceba5--2980517453519304780-6-0.1" type="actor-car--8108581479115277872" depart="120.00" departLane="1" departPos="41.87" departSpeed="max" arrivalLane="0" arrivalPos="30.96">
        <route edges="-gneE39 gneE38 gneE40 -gneE39"/>
    </vehicle>
    <vehicle id="-flow-random-route-1f03913b-058a-436d-b18a-d8f0027b9fec--2980517453519304780-20-0.1" type="actor-car--8108581479115277872" depart="120.00" departLane="1" departPos="25.52" departSpeed="max" arrivalLane="0" arrivalPos="17.42">
        <route edges="gneE33 gneE32 -gneE34 gneE37"/>
    </vehicle>
    <vehicle id="-flow-random-route-21358963-834f-4332-9621-eb4435fa8773--2980517453519304780-14-0.1" type="actor-car--8108581479115277872" depart="120.00" departLane="1" departPos="46.68" departSpeed="max" arrivalLane="0" arrivalPos="3.34">
        <route edges="gneE35 gneE36 -gneE37 gneE34 -gneE32 -gneE33 gneE37 -gneE36 -gneE35 gneE33"/>
    </vehicle>
    <vehicle id="-flow-random-route-22f134f4-bfdb-49b3-bacd-5390fcc25567--2980517453519304780-27-0.1" type="actor-car--8108581479115277872" depart="120.00" departLane="0" departPos="49.40" departSpeed="max" arrivalLane="0" arrivalPos="37.01">
        <route edges="-gneE40 -gneE38 gneE39 -gneE40 -gneE38 gneE35 gneE36 -gneE37 gneE38 gneE40"/>
    </vehicle>
    <vehicle id="-flow-random-route-266a1a83-a4cf-48d8-8cd8-6852ed788585--2980517453519304780-26-0.1" type="actor-car--8108581479115277872" depart="120.00" departLane="0" departPos="16.68" departSpeed="max" arrivalLane="1" arrivalPos="33.06">
        <route edges="-gneE38 gneE33 gneE32 -gneE34"/>
    </vehicle>
    <vehicle id="-flow-random-route-2b184dff-496f-46bb-973e-e2743b3f03be--2980517453519304780-23-0.1" type="actor-car--8108581479115277872" depart="120.00" departLane="0" departPos="16.21" departSpeed="max" arrivalLane="0" arrivalPos="50.44">
        <route edges="-gneE40 -gneE38 gneE37 -gneE36 -gneE35 gneE37 -gneE36 -gneE35 gneE33 gneE32"/>
    </vehicle>
    <vehicle id="-flow-random-route-495a5c8e-fcf0-4d66-9568-6716e8aa3d96--2980517453519304780-29-0.1" type="actor-car--8108581479115277872" depart="120.00" departLane="0" departPos="29.30" departSpeed="max" arrivalLane="0" arrivalPos="55.58">
        <route edges="gneE39 -gneE40 -gneE38 gneE39 -gneE40 -gneE38 gneE39 -gneE40 -gneE38 gneE35"/>
    </vehicle>
    <vehicle id="-flow-random-route-4c54cfbe-ecbc-4019-8325-16f602e962d7--2980517453519304780-10-0.1" type="actor-car--8108581479115277872" depart="120.00" departLane="0" departPos="73.17" departSpeed="max" arrivalLane="0" arrivalPos="19.24">
        <route edges="-gneE35 gneE34 -gneE32 -gneE33 gneE35 gneE36 -gneE37 gneE38 gneE40 -gneE39"/>
    </vehicle>
    <vehicle id="-flow-random-route-561770f3-3c3b-4963-81d1-0b8bb9a16e42--2980517453519304780-1-0.1" type="actor-car--8108581479115277872" depart="120.00" departLane="0" departPos="2.55" departSpeed="max" arrivalLane="1" arrivalPos="54.67">
        <route edges="gneE38 gneE40 -gneE39 gneE37 -gneE36 -gneE35 gneE38 gneE40 -gneE39 gneE34"/>
    </vehicle>
    <vehicle id="-flow-random-route-6674186e-8e37-47b4-a33a-e2787fdc2337--2980517453519304780-12-0.1" type="actor-car--8108581479115277872" depart="120.00" departLane="1" departPos="64.24" departSpeed="max" arrivalLane="0" arrivalPos="32.63">
        <route edges="gneE40 -gneE39 gneE37 -gneE36"/>
    </vehicle>
    <vehicle id="-flow-random-route-7cc6c405-a8c9-4609-8028-ae94cbcb5692--2980517453519304780-15-0.1" type="actor-car--8108581479115277872" depart="120.00" departLane="0" departPos="38.76" departSpeed="max" arrivalLane="0" arrivalPos="30.21">
        <route edges="-gneE39 gneE34 -gneE32 -gneE33 gneE37 -gneE36 -gneE35 gneE39 -gneE40 -gneE38"/>
    </vehicle>
    <vehicle id="-flow-random-route-80e4c8d4-aa62-4a52-a08c-9904e34d5bc0--2980517453519304780-7-0.1" type="actor-car--8108581479115277872" depart="120.00" departLane="0" departPos="24.38" departSpeed="max" arrivalLane="0" arrivalPos="25.29">
        <route edges="gneE38 gneE40 -gneE39 gneE38 gneE40 -gneE39 gneE37 -gneE36 -gneE35 gneE39"/>
    </vehicle>
    <vehicle id="-flow-random-route-815e3283-cfe4-4f29-94b5-2244983d73bf--2980517453519304780-17-0.1" type="actor-car--8108581479115277872" depart="120.00" departLane="0" departPos="77.74" departSpeed="max" arrivalLane="1" arrivalPos="17.02">
        <route edges="-gneE35 gneE38 gneE40 -gneE39 gneE33 gneE32 -gneE34"/>
    </vehicle>
    <vehicle id="-flow-random-route-983a98f5-34f1-4087-8b27-f4014567f44c--2980517453519304780-0-0.1" type="actor-car--8108581479115277872" depart="120.00" departLane="0" departPos="63.02" departSpeed="max" arrivalLane="0" arrivalPos="1.78">
        <route edges="gneE37 -gneE36 -gneE35 gneE34 -gneE32 -gneE33 gneE35 gneE36 -gneE37 gneE33"/>
    </vehicle>
    <vehicle id="-flow-random-route-9ac6b9e1-c96f-4eb4-bf5e-cd602e1b61e2--2980517453519304780-22-0.1" type="actor-car--8108581479115277872" depart="120.00" departLane="0" departPos="68.14" departSpeed="max" arrivalLane="1" arrivalPos="8.84">
        <route edges="gneE40 -gneE39 gneE35 gneE36 -gneE37 gneE35 gneE36 -gneE37 gneE34 -gneE32"/>
    </vehicle>
    <vehicle id="-flow-random-route-9b3f5ee2-b415-4b75-af80-aeb551da3a78--2980517453519304780-25-0.1" type="actor-car--8108581479115277872" depart="120.00" departLane="1" departPos="28.65" departSpeed="max" arrivalLane="1" arrivalPos="39.47">
        <route edges="gneE40 -gneE39 gneE33 gneE32 -gneE34 gneE37 -gneE36 -gneE35 gneE38 gneE40"/>
    </vehicle>
    <vehicle id="-flow-random-route-a62acabf-9745-4793-a37f-f43486b88612--2980517453519304780-11-0.1" type="actor-car--8108581479115277872" depart="120.00" departLane="0" departPos="47.58" departSpeed="max" arrivalLane="0" arrivalPos="2.99">
        <route edges="gneE35 gneE36 -gneE37 gneE39 -gneE40 -gneE38 gneE37 -gneE36 -gneE35 gneE38"/>
    </vehicle>
    <vehicle id="-flow-random-route-aac58498-42f9-45ef-b9cf-088696bb624c--2980517453519304780-16-0.1" type="actor-car--8108581479115277872" depart="120.00" departLane="1" departPos="9.10" departSpeed="max" arrivalLane="1" arrivalPos="49.49">
        <route edges="-gneE39 gneE33 gneE32 -gneE34 gneE38 gneE40 -gneE39 gneE34 -gneE32 -gneE33"/>
    </vehicle>
    <vehicle id="-flow-random-route-c0edd072-c0d1-4560-880e-5aaf158aecd2--2980517453519304780-5-0.1" type="actor-car--8108581479115277872" depart="120.00" departLane="0" departPos="31.11" departSpeed="max" arrivalLane="1" arrivalPos="42.78">
        <route edges="gneE35 gneE36 -gneE37 gneE33 gneE32 -gneE34 gneE38 gneE40 -gneE39 gneE35"/>
    </vehicle>
    <vehicle id="-flow-random-route-c1d52606-5aae-4dc7-a03e-8393df3b7d9f--2980517453519304780-2-0.1" type="actor-car--8108581479115277872" depart="120.00" departLane="0" departPos="62.16" departSpeed="max" arrivalLane="0" arrivalPos="12.65">
        <route edges="-gneE33 gneE39 -gneE40 -gneE38 gneE39 -gneE40 -gneE38 gneE34 -gneE32 -gneE33"/>
    </vehicle>
    <vehicle id="-flow-random-route-c5ef9b31-e7be-4aa0-af59-7c882d0e7276--2980517453519304780-21-0.1" type="actor-car--8108581479115277872" depart="120.00" departLane="1" departPos="69.76" departSpeed="max" arrivalLane="1" arrivalPos="51.18">
        <route edges="-gneE35 gneE33 gneE32 -gneE34 gneE39 -gneE40 -gneE38 gneE37 -gneE36 -gneE35"/>
    </vehicle>
    <vehicle id="-flow-random-route-ccfff654-f022-4a84-8225-094944cfb4eb--2980517453519304780-28-0.1" type="actor-car--8108581479115277872" depart="120.00" departLane="0" departPos="51.01" departSpeed="max" arrivalLane="1" arrivalPos="20.33">
        <route edges="-gneE33 gneE38 gneE40 -gneE39 gneE33 gneE32 -gneE34 gneE37 -gneE36 -gneE35"/>
    </vehicle>
    <vehicle id="-flow-random-route-d105a432-989d-4831-8f95-5d977f09da25--2980517453519304780-24-0.1" type="actor-car--8108581479115277872" depart="120.00" departLane="0" departPos="3.50" departSpeed="max" arrivalLane="1" arrivalPos="77.73">
        <route edges="gneE36 -gneE37 gneE35 gneE36 -gneE37 gneE39 -gneE40 -gneE38 gneE34 -gneE32"/>
    </vehicle>
    <vehicle id="-flow-random-route-d13e3ae5-f705-4274-9a93-4bc689aef474--2980517453519304780-3-0.1" type="actor-car--8108581479115277872" depart="120.00" departLane="1" departPos="53.11" departSpeed="max" arrivalLane="1" arrivalPos="34.84">
        <route edges="-gneE34 gneE39 -gneE40 -gneE38"/>
    </vehicle>
    <vehicle id="-flow-random-route-d16eacc5-7897-464b-b6d1-fa5420d1fc37--2980517453519304780-4-0.1" type="actor-car--8108581479115277872" depart="120.00" departLane="1" departPos="11.26" departSpeed="max" arrivalLane="1" arrivalPos="47.51">
        <route edges="-gneE40 -gneE38 gneE35 gneE36 -gneE37 gneE38 gneE40 -gneE39 gneE37 -gneE36"/>
    </vehicle>
    <vehicle id="-flow-random-route-d2b52533-5311-43be-ab5d-c387573e6a66--2980517453519304780-13-0.1" type="actor-car--8108581479115277872" depart="120.00" departLane="0" departPos="58.42" departSpeed="max" arrivalLane="1" arrivalPos="30.62">
        <route edges="-gneE34 gneE33 gneE32 -gneE34 gneE39 -gneE40 -gneE38 gneE35 gneE36 -gneE37"/>
    </vehicle>
    <vehicle id="-flow-random-route-dfefd3a8-2733-4003-b66c-12efc759315a--2980517453519304780-18-0.1" type="actor-car--8108581479115277872" depart="120.00" departLane="0" departPos="60.47" departSpeed="max" arrivalLane="0" arrivalPos="4.05">
        <route edges="gneE35 gneE36 -gneE37 gneE34 -gneE32 -gneE33 gneE38 gneE40 -gneE39 gneE35"/>
    </vehicle>
    <vehicle id="-flow-random-route-efe004da-6fdf-41b7-842b-7b5ecec396d1--2980517453519304780-19-0.1" type="actor-car--8108581479115277872" depart="120.00" departLane="1" departPos="69.19" departSpeed="max" arrivalLane="0" arrivalPos="35.38">
        <route edges="gneE40 -gneE39 gneE37 -gneE36 -gneE35 gneE33 gneE32 -gneE34 gneE39 -gneE40"/>
    </vehicle>
    <vehicle id="-flow-random-route-0ec18b74-46bf-4111-8615-1e869c6792b0--2980517453519304780-8-0.2" type="actor-car--8108581479115277872" depart="240.00" departLane="0" departPos="34.04" departSpeed="max" arrivalLane="1" arrivalPos="7.75">
        <route edges="-gneE38 gneE33 gneE32 -gneE34 gneE38 gneE40 -gneE39"/>
    </vehicle>
    <vehicle id="-flow-random-route-1670c53a-d5c9-420e-ae40-a15d2043b2f9--2980517453519304780-9-0.2" type="actor-car--8108581479115277872" depart="240.00" departLane="1" departPos="77.74" departSpeed="max" arrivalLane="0" arrivalPos="0.78">
        <route edges="gneE36 -gneE37 gneE34 -gneE32 -gneE33 gneE38 gneE40 -gneE39 gneE35 gneE36"/>
    </vehicle>
    <vehicle id="-flow-random-route-19cc08b5-bf10-48d4-9a9f-7832930ceba5--2980517453519304780-6-0.2" type="actor-car--8108581479115277872" depart="240.00" departLane="1" departPos="41.87" departSpeed="max" arrivalLane="0" arrivalPos="30.96">
        <route edges="-gneE39 gneE38 gneE40 -gneE39"/>
    </vehicle>
    <vehicle id="-flow-random-route-1f03913b-058a-436d-b18a-d8f0027b9fec--2980517453519304780-20-0.2" type="actor-car--8108581479115277872" depart="240.00" departLane="1" departPos="25.52" departSpeed="max" arrivalLane="0" arrivalPos="17.42">
        <route edges="gneE33 gneE32 -gneE34 gneE37"/>
    </vehicle>
    <vehicle id="-flow-random-route-21358963-834f-4332-9621-eb4435fa8773--2980517453519304780-14-0.2" type="actor-car--8108581479115277872" depart="240.00" departLane="1" departPos="46.68" departSpeed="max" arrivalLane="0" arrivalPos="3.34">
        <route edges="gneE35 gneE36 -gneE37 gneE34 -gneE32 -gneE33 gneE37 -gneE36 -gneE35 gneE33"/>
    </vehicle>
    <vehicle id="-flow-random-route-22f134f4-bfdb-49b3-bacd-5390fcc25567--2980517453519304780-27-0.2" type="actor-car--8108581479115277872" depart="240.00" departLane="0" departPos="49.40" departSpeed="max" arrivalLane="0" arrivalPos="37.01">
        <route edges="-gneE40 -gneE38 gneE39 -gneE40 -gneE38 gneE35 gneE36 -gneE37 gneE38 gneE40"/>
    </vehicle>
    <vehicle id="-flow-random-route-266a1a83-a4cf-48d8-8cd8-6852ed788585--2980517453519304780-26-0.2" type="actor-car--8108581479115277872" depart="240.00" departLane="0" departPos="16.68" departSpeed="max" arrivalLane="1" arrivalPos="33.06">
        <route edges="-gneE38 gneE33 gneE32 -gneE34"/>
    </vehicle>
    <vehicle id="-flow-random-route-2b184dff-496f-46bb-973e-e2743b3f03be--2980517453519304780-23-0.2" type="actor-car--8108581479115277872" depart="240.00" departLane="0" departPos="16.21" departSpeed="max" arrivalLane="0" arrivalPos="50.44">
        <route edges="-gneE40 -gneE38 gneE37 -gneE36 -gneE35 gneE37 -gneE36 -gneE35 gneE33 gneE32"/>
    </vehicle>
    <vehicle id="-flow-random-route-495a5c8e-fcf0-4d66-9568-6716e8aa3d96--2980517453519304780-29-0.2" type="actor-car--8108581479115277872" depart="240.00" departLane="0" departPos="29.30" departSpeed="max" arrivalLane="0" arrivalPos="55.58">
        <route edges="gneE39 -gneE40 -gneE38 gneE39 -gneE40 -gneE38 gneE39 -gneE40 -gneE38 gneE35"/>
    </vehicle>
    <vehicle id="-flow-random-route-4c54cfbe-ecbc-4019-8325-16f602e962d7--2980517453519304780-10-0.2" type="actor-car--8108581479115277872" depart="240.00" departLane="0" departPos="73.17" departSpeed="max" arrivalLane="0" arrivalPos="19.24">
        <route edges="-gneE35 gneE34 -gneE32 -gneE33 gneE35 gneE36 -gneE37 gneE38 gneE40 -gneE39"/>
    </vehicle>
    <vehicle id="-flow-random-route-561770f3-3c3b-4963-81d1-0b8bb9a16e42--2980517453519304780-1-0.2" type="actor-car--8108581479115277872" depart="240.00" departLane="0" departPos="2.55" departSpeed="max" arrivalLane="1" arrivalPos="54.67">
        <route edges="gneE38 gneE40 -gneE39 gneE37 -gneE36 -gneE35 gneE38 gneE40 -gneE39 gneE34"/>
    </vehicle>
    <vehicle id="-flow-random-route-6674186e-8e37-47b4-a33a-e2787fdc2337--2980517453519304780-12-0.2" type="actor-car--8108581479115277872" depart="240.00" departLane="1" departPos="64.24" departSpeed="max" arrivalLane="0" arrivalPos="32.63">
        <route edges="gneE40 -gneE39 gneE37 -gneE36"/>
    </vehicle>
    <vehicle id="-flow-random-route-7cc6c405-a8c9-4609-8028-ae94cbcb5692--2980517453519304780-15-0.2" type="actor-car--8108581479115277872" depart="240.00" departLane="0" departPos="38.76" departSpeed="max" arrivalLane="0" arrivalPos="30.21">
        <route edges="-gneE39 gneE34 -gneE32 -gneE33 gneE37 -gneE36 -gneE35 gneE39 -gneE40 -gneE38"/>
    </vehicle>
    <vehicle id="-flow-random-route-80e4c8d4-aa62-4a52-a08c-9904e34d5bc0--2980517453519304780-7-0.2" type="actor-car--8108581479115277872" depart="240.00" departLane="0" departPos="24.38" departSpeed="max" arrivalLane="0" arrivalPos="25.29">
        <route edges="gneE38 gneE40 -gneE39 gneE38 gneE40 -gneE39 gneE37 -gneE36 -gneE35 gneE39"/>
    </vehicle>
    <vehicle id="-flow-random-route-815e3283-cfe4-4f29-94b5-2244983d73bf--2980517453519304780-17-0.2" type="actor-car--8108581479115277872" depart="240.00" departLane="0" departPos="77.74" departSpeed="max" arrivalLane="1" arrivalPos="17.02">
        <route edges="-gneE35 gneE38 gneE40 -gneE39 gneE33 gneE32 -gneE34"/>
    </vehicle>
    <vehicle id="-flow-random-route-983a98f5-34f1-4087-8b27-f4014567f44c--2980517453519304780-0-0.2" type="actor-car--8108581479115277872" depart="240.00" departLane="0" departPos="63.02" departSpeed="max" arrivalLane="0" arrivalPos="1.78">
        <route edges="gneE37 -gneE36 -gneE35 gneE34 -gneE32 -gneE33 gneE35 gneE36 -gneE37 gneE33"/>
    </vehicle>
    <vehicle id="-flow-random-route-9ac6b9e1-c96f-4eb4-bf5e-cd602e1b61e2--2980517453519304780-22-0.2" type="actor-car--8108581479115277872" depart="240.00" departLane="0" departPos="68.14" departSpeed="max" arrivalLane="1" arrivalPos="8.84">
        <route edges="gneE40 -gneE39 gneE35 gneE36 -gneE37 gneE35 gneE36 -gneE37 gneE34 -gneE32"/>
    </vehicle>
    <vehicle id="-flow-random-route-9b3f5ee2-b415-4b75-af80-aeb551da3a78--2980517453519304780-25-0.2" type="actor-car--8108581479115277872" depart="240.00" departLane="1" departPos="28.65" departSpeed="max" arrivalLane="1" arrivalPos="39.47">
        <route edges="gneE40 -gneE39 gneE33 gneE32 -gneE34 gneE37 -gneE36 -gneE35 gneE38 gneE40"/>
    </vehicle>
    <vehicle id="-flow-random-route-a62acabf-9745-4793-a37f-f43486b88612--2980517453519304780-11-0.2" type="actor-car--8108581479115277872" depart="240.00" departLane="0" departPos="47.58" departSpeed="max" arrivalLane="0" arrivalPos="2.99">
        <route edges="gneE35 gneE36 -gneE37 gneE39 -gneE40 -gneE38 gneE37 -gneE36 -gneE35 gneE38"/>
    </vehicle>
    <vehicle id="-flow-random-route-aac58498-42f9-45ef-b9cf-088696bb624c--2980517453519304780-16-0.2" type="actor-car--8108581479115277872" depart="240.00" departLane="1" departPos="9.10" departSpeed="max" arrivalLane="1" arrivalPos="49.49">
        <route edges="-gneE39 gneE33 gneE32 -gneE34 gneE38 gneE40 -gneE39 gneE34 -gneE32 -gneE33"/>
    </vehicle>
    <vehicle id="-flow-random-route-c0edd072-c0d1-4560-880e-5aaf158aecd2--2980517453519304780-5-0.2" type="actor-car--8108581479115277872" depart="240.00" departLane="0" departPos="31.11" departSpeed="max" arrivalLane="1" arrivalPos="42.78">
        <route edges="gneE35 gneE36 -gneE37 gneE33 gneE32 -gneE34 gneE38 gneE40 -gneE39 gneE35"/>
    </vehicle>
    <vehicle id="-flow-random-route-c1d52606-5aae-4dc7-a03e-8393df3b7d9f--2980517453519304780-2-0.2" type="actor-car--8108581479115277872" depart="240.00" departLane="0" departPos="62.16" departSpeed="max" arrivalLane="0" arrivalPos="12.65">
        <route edges="-gneE33 gneE39 -gneE40 -gneE38 gneE39 -gneE40 -gneE38 gneE34 -gneE32 -gneE33"/>
    </vehicle>