<?xml version="1.0" encoding="UTF-8"?>

<!-- generated on Sun Sep 20 09:13:43 2020 by Eclipse SUMO duarouter Version 1.6.0
<configuration xmlns:xsi="http://www.w3.org/2001/XMLSchema-instance" xsi:noNamespaceSchemaLocation="http://sumo.dlr.de/xsd/duarouterConfiguration.xsd">

    <input>
        <net-file value="../dataset_public/merge_loop/merge_a/map.net.xml"/>
        <route-files value="/tmp/tmppno1sd8w/trips.trips.xml"/>
    </input>

    <output>
        <output-file value="../dataset_public/merge_loop/merge_a/traffic/30_patient_car.rou.xml"/>
        <alternatives-output value="../dataset_public/merge_loop/merge_a/traffic/30_patient_car.rou.alt.xml"/>
    </output>

    <processing>
        <unsorted-input value="true"/>
        <repair value="true"/>
    </processing>

    <report>
        <error-log value="/tmp/smarts/_duarouter_routing/traffic/30_patient_car.log"/>
        <no-step-log value="true"/>
    </report>

    <random_number>
        <seed value="42"/>
    </random_number>

</configuration>
-->

<routes xmlns:xsi="http://www.w3.org/2001/XMLSchema-instance" xsi:noNamespaceSchemaLocation="http://sumo.dlr.de/xsd/routes_file.xsd">
    <vType id="actor-car--9221128364550598081" minGap="2.50" speedFactor="normc(0.50,0.20,0.20,2.00)" vClass="passenger" impatience="0.50" lcCooperative="0.5" lcImpatience="0" jmDriveAfterYellowTime="1.0" accel="2.6" decel="4.5" sigma="0.5"/>
    <vehicle id="-flow-random-route-00cdf848-0b69-490c-bda1-041c6147a58e--7880287394296412225-13-0.0" type="actor-car--9221128364550598081" depart="0.00" departLane="0" departPos="110.65" departSpeed="max" arrivalLane="1" arrivalPos="10.24">
        <route edges="gneE8 gneE9 gneE2"/>
    </vehicle>
    <vehicle id="-flow-random-route-01330909-2be4-4bbd-a62a-6771193ff173--7880287394296412225-7-0.0" type="actor-car--9221128364550598081" depart="0.00" departLane="1" departPos="41.46" departSpeed="max" arrivalLane="0" arrivalPos="12.18">
        <route edges="gneE5 gneE7 gneE7.117 gneE10 gneE3"/>
    </vehicle>
    <vehicle id="-flow-random-route-03138ec8-0330-4250-a48a-8d550039b36c--7880287394296412225-3-0.0" type="actor-car--9221128364550598081" depart="0.00" departLane="1" departPos="75.70" departSpeed="max" arrivalLane="1" arrivalPos="20.39">
        <route edges="gneE9 gneE2 gneE1"/>
    </vehicle>
    <vehicle id="-flow-random-route-1230e989-74cd-49b1-bb46-4509fbc4fbed--7880287394296412225-23-0.0" type="actor-car--9221128364550598081" depart="0.00" departLane="0" departPos="28.73" departSpeed="max" arrivalLane="1" arrivalPos="79.57">
        <route edges="gneE16 gneE7.117 gneE10"/>
    </vehicle>
    <vehicle id="-flow-random-route-16e7d801-727e-45ea-9b58-9456024890e2--7880287394296412225-10-0.0" type="actor-car--9221128364550598081" depart="0.00" departLane="0" departPos="44.91" departSpeed="max" arrivalLane="0" arrivalPos="71.29">
        <route edges="gneE2 gneE1 gneE16"/>
    </vehicle>
    <vehicle id="-flow-random-route-3517c553-ad3f-4599-86a4-11ac195d9457--7880287394296412225-19-0.0" type="actor-car--9221128364550598081" depart="0.00" departLane="0" departPos="0.98" departSpeed="max" arrivalLane="0" arrivalPos="31.10">
        <route edges="gneE5 gneE7 gneE7.117 gneE7.141 gneE8 gneE9 gneE2 gneE1 gneE1.12 gneE5"/>
    </vehicle>
    <vehicle id="-flow-random-route-36123046-af3a-4207-a97f-68de0fc3e049--7880287394296412225-8-0.0" type="actor-car--9221128364550598081" depart="0.00" departLane="1" departPos="8.63" departSpeed="max" arrivalLane="0" arrivalPos="29.86">
        <route edges="gneE1 gneE1.12 gneE5 gneE7 gneE7.117 gneE7.141 gneE8 gneE9 gneE2 gneE1"/>
    </vehicle>
    <vehicle id="-flow-random-route-44b630b6-fbaa-4e1d-93e7-043be54a2478--7880287394296412225-1-0.0" type="actor-car--9221128364550598081" depart="0.00" departLane="0" departPos="152.32" departSpeed="max" arrivalLane="1" arrivalPos="31.01">
        <route edges="gneE8 gneE9 gneE2 gneE1 gneE1.12 gneE5 gneE7 gneE7.117 gneE7.141 gneE8"/>
    </vehicle>
    <vehicle id="-flow-random-route-5f666096-1a2f-4de9-9edd-3f394004c5a9--7880287394296412225-25-0.0" type="actor-car--9221128364550598081" depart="0.00" departLane="0" departPos="46.08" departSpeed="max" arrivalLane="1" arrivalPos="9.68">
        <route edges="gneE10 gneE3 gneE1"/>
    </vehicle>
    <vehicle id="-flow-random-route-609183b2-e78d-4b00-bad5-b36daafabe9c--7880287394296412225-22-0.0" type="actor-car--9221128364550598081" depart="0.00" departLane="1" departPos="10.60" departSpeed="max" arrivalLane="1" arrivalPos="51.84">
        <route edges="gneE7.141 gneE8 gneE9 gneE2 gneE1 gneE1.12 gneE5 gneE7 gneE7.117 gneE10"/>
    </vehicle>
    <vehicle id="-flow-random-route-695307f7-5ac3-4789-b9fe-fbc4e0cbeed8--7880287394296412225-2-0.0" type="actor-car--9221128364550598081" depart="0.00" departLane="0" departPos="80.76" departSpeed="max" arrivalLane="1" arrivalPos="8.62">
        <route edges="gneE9 gneE2 gneE1 gneE1.12 gneE5 gneE7 gneE7.117 gneE7.141 gneE8 gneE9"/>
    </vehicle>
    <vehicle id="-flow-random-route-736e8ff5-4761-4e37-af71-2d36c6fda286--7880287394296412225-15-0.0" type="actor-car--9221128364550598081" depart="0.00" departLane="0" departPos="101.00" departSpeed="max" arrivalLane="1" arrivalPos="35.45">
        <route edges="gneE16 gneE7.117 gneE10 gneE3 gneE1"/>
    </vehicle>
    <vehicle id="-flow-random-route-76651a7c-0ba0-4b66-89f2-37086d325c31--7880287394296412225-5-0.0" type="actor-car--9221128364550598081" depart="0.00" departLane="0" departPos="63.76" departSpeed="max" arrivalLane="1" arrivalPos="49.06">
        <route edges="gneE16 gneE7.117 gneE7.141 gneE8 gneE9 gneE2 gneE1 gneE1.12 gneE5 gneE7"/>
    </vehicle>
    <vehicle id="-flow-random-route-7a448778-b39d-4d2e-9fb6-3c7da250642b--7880287394296412225-28-0.0" type="actor-car--9221128364550598081" depart="0.00" departLane="1" departPos="32.90" departSpeed="max" arrivalLane="1" arrivalPos="94.52">
        <route edges="gneE1.12 gneE5 gneE7 gneE7.117 gneE10"/>
    </vehicle>
    <vehicle id="-flow-random-route-7c89f3fe-13a3-489d-8989-9dfe51727e5c--7880287394296412225-24-0.0" type="actor-car--9221128364550598081" depart="0.00" departLane="0" departPos="142.73" departSpeed="max" arrivalLane="1" arrivalPos="25.42">
        <route edges="gneE8 gneE9 gneE2"/>
    </vehicle>
    <vehicle id="-flow-random-route-858424be-73ba-4343-a16d-c452db5e1855--7880287394296412225-0-0.0" type="actor-car--9221128364550598081" depart="0.00" departLane="0" departPos="32.02" departSpeed="max" arrivalLane="0" arrivalPos="63.63">
        <route edges="gneE2 gneE1 gneE16 gneE7.117 gneE10"/>
    </vehicle>
    <vehicle id="-flow-random-route-8bfc952d-1aa2-47c0-9b40-108b45ac3605--7880287394296412225-12-0.0" type="actor-car--9221128364550598081" depart="0.00" departLane="1" departPos="139.88" departSpeed="max" arrivalLane="0" arrivalPos="27.74">
        <route edges="gneE7.117 gneE10 gneE3"/>
    </vehicle>
    <vehicle id="-flow-random-route-8dc14053-1256-42a5-95b8-e5555b82242b--7880287394296412225-20-0.0" type="actor-car--9221128364550598081" depart="0.00" departLane="1" departPos="86.24" departSpeed="max" arrivalLane="0" arrivalPos="123.11">
        <route edges="gneE1.12 gneE5 gneE7 gneE7.117 gneE7.141 gneE8 gneE9 gneE2 gneE1 gneE16"/>
    </vehicle>
    <vehicle id="-flow-random-route-9b845728-edba-403f-be21-7cc9731a315c--7880287394296412225-17-0.0" type="actor-car--9221128364550598081" depart="0.00" departLane="0" departPos="52.27" departSpeed="max" arrivalLane="1" arrivalPos="28.92">
        <route edges="gneE5 gneE7 gneE7.117 gneE10 gneE3"/>
    </vehicle>
    <vehicle id="-flow-random-route-9bbfe934-8e17-4bca-aa56-331a8a4bb2b0--7880287394296412225-21-0.0" type="actor-car--9221128364550598081" depart="0.00" departLane="0" departPos="10.39" departSpeed="max" arrivalLane="0" arrivalPos="19.22">
        <route edges="gneE3 gneE1 gneE1.12 gneE5 gneE7 gneE7.117 gneE10 gneE3 gneE1 gneE16"/>
    </vehicle>
    <vehicle id="-flow-random-route-a1611de4-8d05-480b-b6d0-3d02087d95cb--7880287394296412225-14-0.0" type="actor-car--9221128364550598081" depart="0.00" departLane="0" departPos="127.37" departSpeed="max" arrivalLane="0" arrivalPos="60.15">
        <route edges="gneE16 gneE7.117 gneE10 gneE3 gneE1 gneE16 gneE7.117 gneE7.141 gneE8 gneE9"/>
    </vehicle>
    <vehicle id="-flow-random-route-b33c209c-f465-4ba1-a931-f77e98880362--7880287394296412225-16-0.0" type="actor-car--9221128364550598081" depart="0.00" departLane="1" departPos="78.44" departSpeed="max" arrivalLane="0" arrivalPos="6.23">
        <route edges="gneE5 gneE7 gneE7.117 gneE7.141 gneE8 gneE9 gneE2 gneE1 gneE1.12 gneE5"/>
    </vehicle>
    <vehicle id="-flow-random-route-b962a3ce-469d-4bec-9f42-1a4faae52100--7880287394296412225-29-0.0" type="actor-car--9221128364550598081" depart="0.00" departLane="0" departPos="3.52" departSpeed="max" arrivalLane="0" arrivalPos="170.89">
        <route edges="gneE7.117 gneE7.141 gneE8"/>
    </vehicle>
    <vehicle id="-flow-random-route-bc6b02b0-ccfb-49fb-ba03-3ccc6f0c2819--7880287394296412225-4-0.0" type="actor-car--9221128364550598081" depart="0.00" departLane="1" departPos="57.92" departSpeed="max" arrivalLane="1" arrivalPos="35.13">
        <route edges="gneE7.117 gneE10 gneE3 gneE1 gneE16 gneE7.117 gneE7.141 gneE8 gneE9 gneE2"/>
    </vehicle>
    <vehicle id="-flow-random-route-ca354497-b0ca-4e9e-a1a4-fa10a40e8169--7880287394296412225-27-0.0" type="actor-car--9221128364550598081" depart="0.00" departLane="0" departPos="22.38" departSpeed="max" arrivalLane="0" arrivalPos="75.84">
        <route edges="gneE7 gneE7.117 gneE10 gneE3 gneE1 gneE16 gneE7.117 gneE7.141 gneE8 gneE9"/>
    </vehicle>
    <vehicle id="-flow-random-route-cb96b5d0-33c3-49bd-8b9c-04a911cdc503--7880287394296412225-26-0.0" type="actor-car--9221128364550598081" depart="0.00" departLane="1" departPos="101.44" departSpeed="max" arrivalLane="0" arrivalPos="32.83">
        <route edges="gneE1.12 gneE5 gneE7 gneE7.117 gneE7.141 gneE8 gneE9 gneE2 gneE1 gneE16"/>
    </vehicle>
    <vehicle id="-flow-random-route-e3281bb4-d1fe-47f1-a3e3-a5e7ce95dad0--7880287394296412225-6-0.0" type="actor-car--9221128364550598081" depart="0.00" departLane="0" departPos="63.04" departSpeed="max" arrivalLane="0" arrivalPos="19.94">
        <route edges="gneE7.141 gneE8 gneE9 gneE2 gneE1 gneE1.12 gneE5 gneE7 gneE7.117 gneE10"/>
    </vehicle>
    <vehicle id="-flow-random-route-eef640c2-3675-4c87-a7a8-f031ef3f5043--7880287394296412225-11-0.0" type="actor-car--9221128364550598081" depart="0.00" departLane="0" departPos="54.68" departSpeed="max" arrivalLane="0" arrivalPos="45.78">
        <route edges="gneE7.141 gneE8 gneE9 gneE2 gneE1 gneE1.12 gneE5 gneE7 gneE7.117 gneE10"/>
    </vehicle>
    <vehicle id="-flow-random-route-f87752fc-257c-4261-be75-934a38da2f08--7880287394296412225-9-0.0" type="actor-car--9221128364550598081" depart="0.00" departLane="0" departPos="25.80" departSpeed="max" arrivalLane="0" arrivalPos="131.61">
        <route edges="gneE5 gneE7 gneE7.117 gneE7.141 gneE8 gneE9 gneE2 gneE1 gneE1.12 gneE5"/>
    </vehicle>
    <vehicle id="-flow-random-route-fc20345e-d42f-43ad-8a33-7780f730cae6--7880287394296412225-18-0.0" type="actor-car--9221128364550598081" depart="0.00" departLane="1" departPos="51.03" departSpeed="max" arrivalLane="1" arrivalPos="9.22">
        <route edges="gneE9 gneE2 gneE1"/>
    </vehicle>
    <vehicle id="-flow-random-route-00cdf848-0b69-490c-bda1-041c6147a58e--7880287394296412225-13-0.1" type="actor-car--9221128364550598081" depart="120.00" departLane="0" departPos="110.65" departSpeed="max" arrivalLane="1" arrivalPos="10.24">
        <route edges="gneE8 gneE9 gneE2"/>
    </vehicle>
    <vehicle id="-flow-random-route-01330909-2be4-4bbd-a62a-6771193ff173--7880287394296412225-7-0.1" type="actor-car--9221128364550598081" depart="120.00" departLane="1" departPos="41.46" departSpeed="max" arrivalLane="0" arrivalPos="12.18">
        <route edges="gneE5 gneE7 gneE7.117 gneE10 gneE3"/>
    </vehicle>
    <vehicle id="-flow-random-route-03138ec8-0330-4250-a48a-8d550039b36c--7880287394296412225-3-0.1" type="actor-car--9221128364550598081" depart="120.00" departLane="1" departPos="75.70" departSpeed="max" arrivalLane="1" arrivalPos="20.39">
        <route edges="gneE9 gneE2 gneE1"/>
    </vehicle>
    <vehicle id="-flow-random-route-1230e989-74cd-49b1-bb46-4509fbc4fbed--7880287394296412225-23-0.1" type="actor-car--9221128364550598081" depart="120.00" departLane="0" departPos="28.73" departSpeed="max" arrivalLane="1" arrivalPos="79.57">
        <route edges="gneE16 gneE7.117 gneE10"/>
    </vehicle>
    <vehicle id="-flow-random-route-16e7d801-727e-45ea-9b58-9456024890e2--7880287394296412225-10-0.1" type="actor-car--9221128364550598081" depart="120.00" departLane="0" departPos="44.91" departSpeed="max" arrivalLane="0" arrivalPos="71.29">
        <route edges="gneE2 gneE1 gneE16"/>
    </vehicle>
    <vehicle id="-flow-random-route-3517c553-ad3f-4599-86a4-11ac195d9457--7880287394296412225-19-0.1" type="actor-car--9221128364550598081" depart="120.00" departLane="0" departPos="0.98" departSpeed="max" arrivalLane="0" arrivalPos="31.10">
        <route edges="gneE5 gneE7 gneE7.117 gneE7.141 gneE8 gneE9 gneE2 gneE1 gneE1.12 gneE5"/>
    </vehicle>
    <vehicle id="-flow-random-route-36123046-af3a-4207-a97f-68de0fc3e049--7880287394296412225-8-0.1" type="actor-car--9221128364550598081" depart="120.00" departLane="1" departPos="8.63" departSpeed="max" arrivalLane="0" arrivalPos="29.86">
        <route edges="gneE1 gneE1.12 gneE5 gneE7 gneE7.117 gneE7.141 gneE8 gneE9 gneE2 gneE1"/>
    </vehicle>
    <vehicle id="-flow-random-route-44b630b6-fbaa-4e1d-93e7-043be54a2478--7880287394296412225-1-0.1" type="actor-car--9221128364550598081" depart="120.00" departLane="0" departPos="152.32" departSpeed="max" arrivalLane="1" arrivalPos="31.01">
        <route edges="gneE8 gneE9 gneE2 gneE1 gneE1.12 gneE5 gneE7 gneE7.117 gneE7.141 gneE8"/>
    </vehicle>
    <vehicle id="-flow-random-route-5f666096-1a2f-4de9-9edd-3f394004c5a9--7880287394296412225-25-0.1" type="actor-car--9221128364550598081" depart="120.00" departLane="0" departPos="46.08" departSpeed="max" arrivalLane="1" arrivalPos="9.68">
        <route edges="gneE10 gneE3 gneE1"/>
    </vehicle>
    <vehicle id="-flow-random-route-609183b2-e78d-4b00-bad5-b36daafabe9c--7880287394296412225-22-0.1" type="actor-car--9221128364550598081" depart="120.00" departLane="1" departPos="10.60" departSpeed="max" arrivalLane="1" arrivalPos="51.84">
        <route edges="gneE7.141 gneE8 gneE9 gneE2 gneE1 gneE1.12 gneE5 gneE7 gneE7.117 gneE10"/>
    </vehicle>
    <vehicle id="-flow-random-route-695307f7-5ac3-4789-b9fe-fbc4e0cbeed8--7880287394296412225-2-0.1" type="actor-car--9221128364550598081" depart="120.00" departLane="0" departPos="80.76" departSpeed="max" arrivalLane="1" arrivalPos="8.62">
        <route edges="gneE9 gneE2 gneE1 gneE1.12 gneE5 gneE7 gneE7.117 gneE7.141 gneE8 gneE9"/>
    </vehicle>
    <vehicle id="-flow-random-route-736e8ff5-4761-4e37-af71-2d36c6fda286--7880287394296412225-15-0.1" type="actor-car--9221128364550598081" depart="120.00" departLane="0" departPos="101.00" departSpeed="max" arrivalLane="1" arrivalPos="35.45">
        <route edges="gneE16 gneE7.117 gneE10 gneE3 gneE1"/>
    </vehicle>
    <vehicle id="-flow-random-route-76651a7c-0ba0-4b66-89f2-37086d325c31--7880287394296412225-5-0.1" type="actor-car--9221128364550598081" depart="120.00" departLane="0" departPos="63.76" departSpeed="max" arrivalLane="1" arrivalPos="49.06">
        <route edges="gneE16 gneE7.117 gneE7.141 gneE8 gneE9 gneE2 gneE1 gneE1.12 gneE5 gneE7"/>
    </vehicle>
    <vehicle id="-flow-random-route-7a448778-b39d-4d2e-9fb6-3c7da250642b--7880287394296412225-28-0.1" type="actor-car--9221128364550598081" depart="120.00" departLane="1" departPos="32.90" departSpeed="max" arrivalLane="1" arrivalPos="94.52">
        <route edges="gneE1.12 gneE5 gneE7 gneE7.117 gneE10"/>
    </vehicle>
    <vehicle id="-flow-random-route-7c89f3fe-13a3-489d-8989-9dfe51727e5c--7880287394296412225-24-0.1" type="actor-car--9221128364550598081" depart="120.00" departLane="0" departPos="142.73" departSpeed="max" arrivalLane="1" arrivalPos="25.42">
        <route edges="gneE8 gneE9 gneE2"/>
    </vehicle>
    <vehicle id="-flow-random-route-858424be-73ba-4343-a16d-c452db5e1855--7880287394296412225-0-0.1" type="actor-car--9221128364550598081" depart="120.00" departLane="0" departPos="32.02" departSpeed="max" arrivalLane="0" arrivalPos="63.63">
        <route edges="gneE2 gneE1 gneE16 gneE7.117 gneE10"/>
    </vehicle>
    <vehicle id="-flow-random-route-8bfc952d-1aa2-47c0-9b40-108b45ac3605--7880287394296412225-12-0.1" type="actor-car--9221128364550598081" depart="120.00" departLane="1" departPos="139.88" departSpeed="max" arrivalLane="0" arrivalPos="27.74">
        <route edges="gneE7.117 gneE10 gneE3"/>
    </vehicle>
    <vehicle id="-flow-random-route-8dc14053-1256-42a5-95b8-e5555b82242b--7880287394296412225-20-0.1" type="actor-car--9221128364550598081" depart="120.00" departLane="1" departPos="86.24" departSpeed="max" arrivalLane="0" arrivalPos="123.11">
        <route edges="gneE1.12 gneE5 gneE7 gneE7.117 gneE7.141 gneE8 gneE9 gneE2 gneE1 gneE16"/>
    </vehicle>
    <vehicle id="-flow-random-route-9b845728-edba-403f-be21-7cc9731a315c--7880287394296412225-17-0.1" type="actor-car--9221128364550598081" depart="120.00" departLane="0" departPos="52.27" departSpeed="max" arrivalLane="1" arrivalPos="28.92">
        <route edges="gneE5 gneE7 gneE7.117 gneE10 gneE3"/>
    </vehicle>
    <vehicle id="-flow-random-route-9bbfe934-8e17-4bca-aa56-331a8a4bb2b0--7880287394296412225-21-0.1" type="actor-car--9221128364550598081" depart="120.00" departLane="0" departPos="10.39" departSpeed="max" arrivalLane="0" arrivalPos="19.22">
        <route edges="gneE3 gneE1 gneE1.12 gneE5 gneE7 gneE7.117 gneE10 gneE3 gneE1 gneE16"/>
    </vehicle>
    <vehicle id="-flow-random-route-a1611de4-8d05-480b-b6d0-3d02087d95cb--7880287394296412225-14-0.1" type="actor-car--9221128364550598081" depart="120.00" departLane="0" departPos="127.37" departSpeed="max" arrivalLane="0" arrivalPos="60.15">
        <route edges="gneE16 gneE7.117 gneE10 gneE3 gneE1 gneE16 gneE7.117 gneE7.141 gneE8 gneE9"/>
    </vehicle>
    <vehicle id="-flow-random-route-b33c209c-f465-4ba1-a931-f77e98880362--7880287394296412225-16-0.1" type="actor-car--9221128364550598081" depart="120.00" departLane="1" departPos="78.44" departSpeed="max" arrivalLane="0" arrivalPos="6.23">
        <route edges="gneE5 gneE7 gneE7.117 gneE7.141 gneE8 gneE9 gneE2 gneE1 gneE1.12 gneE5"/>
    </vehicle>
    <vehicle id="-flow-random-route-b962a3ce-469d-4bec-9f42-1a4faae52100--7880287394296412225-29-0.1" type="actor-car--9221128364550598081" depart="120.00" departLane="0" departPos="3.52" departSpeed="max" arrivalLane="0" arrivalPos="170.89">
        <route edges="gneE7.117 gneE7.141 gneE8"/>
    </vehicle>
    <vehicle id="-flow-random-route-bc6b02b0-ccfb-49fb-ba03-3ccc6f0c2819--7880287394296412225-4-0.1" type="actor-car--9221128364550598081" depart="120.00" departLane="1" departPos="57.92" departSpeed="max" arrivalLane="1" arrivalPos="35.13">
        <route edges="gneE7.117 gneE10 gneE3 gneE1 gneE16 gneE7.117 gneE7.141 gneE8 gneE9 gneE2"/>
    </vehicle>
    <vehicle id="-flow-random-route-ca354497-b0ca-4e9e-a1a4-fa10a40e8169--7880287394296412225-27-0.1" type="actor-car--9221128364550598081" depart="120.00" departLane="0" departPos="22.38" departSpeed="max" arrivalLane="0" arrivalPos="75.84">
        <route edges="gneE7 gneE7.117 gneE10 gneE3 gneE1 gneE16 gneE7.117 gneE7.141 gneE8 gneE9"/>
    </vehicle>
    <vehicle id="-flow-random-route-cb96b5d0-33c3-49bd-8b9c-04a911cdc503--7880287394296412225-26-0.1" type="actor-car--9221128364550598081" depart="120.00" departLane="1" departPos="101.44" departSpeed="max" arrivalLane="0" arrivalPos="32.83">
        <route edges="gneE1.12 gneE5 gneE7 gneE7.117 gneE7.141 gneE8 gneE9 gneE2 gneE1 gneE16"/>
    </vehicle>
    <vehicle id="-flow-random-route-e3281bb4-d1fe-47f1-a3e3-a5e7ce95dad0--7880287394296412225-6-0.1" type="actor-car--9221128364550598081" depart="120.00" departLane="0" departPos="63.04" departSpeed="max" arrivalLane="0" arrivalPos="19.94">
        <route edges="gneE7.141 gneE8 gneE9 gneE2 gneE1 gneE1.12 gneE5 gneE7 gneE7.117 gneE10"/>
    </vehicle>
    <vehicle id="-flow-random-route-eef640c2-3675-4c87-a7a8-f031ef3f5043--7880287394296412225-11-0.1" type="actor-car--9221128364550598081" depart="120.00" departLane="0" departPos="54.68" departSpeed="max" arrivalLane="0" arrivalPos="45.78">
        <route edges="gneE7.141 gneE8 gneE9 gneE2 gneE1 gneE1.12 gneE5 gneE7 gneE7.117 gneE10"/>
    </vehicle>
    <vehicle id="-flow-random-route-f87752fc-257c-4261-be75-934a38da2f08--7880287394296412225-9-0.1" type="actor-car--9221128364550598081" depart="120.00" departLane="0" departPos="25.80" departSpeed="max" arrivalLane="0" arrivalPos="131.61">
        <route edges="gneE5 gneE7 gneE7.117 gneE7.141 gneE8 gneE9 gneE2 gneE1 gneE1.12 gneE5"/>
    </vehicle>
    <vehicle id="-flow-random-route-fc20345e-d42f-43ad-8a33-7780f730cae6--7880287394296412225-18-0.1" type="actor-car--9221128364550598081" depart="120.00" departLane="1" departPos="51.03" departSpeed="max" arrivalLane="1" arrivalPos="9.22">
        <route edges="gneE9 gneE2 gneE1"/>
    </vehicle>
    <vehicle id="-flow-random-route-00cdf848-0b69-490c-bda1-041c6147a58e--7880287394296412225-13-0.2" type="actor-car--9221128364550598081" depart="240.00" departLane="0" departPos="110.65" departSpeed="max" arrivalLane="1" arrivalPos="10.24">
        <route edges="gneE8 gneE9 gneE2"/>
    </vehicle>
    <vehicle id="-flow-random-route-01330909-2be4-4bbd-a62a-6771193ff173--7880287394296412225-7-0.2" type="actor-car--9221128364550598081" depart="240.00" departLane="1" departPos="41.46" departSpeed="max" arrivalLane="0" arrivalPos="12.18">
        <route edges="gneE5 gneE7 gneE7.117 gneE10 gneE3"/>
    </vehicle>
    <vehicle id="-flow-random-route-03138ec8-0330-4250-a48a-8d550039b36c--7880287394296412225-3-0.2" type="actor-car--9221128364550598081" depart="240.00" departLane="1" departPos="75.70" departSpeed="max" arrivalLane="1" arrivalPos="20.39">
        <route edges="gneE9 gneE2 gneE1"/>
    </vehicle>
    <vehicle id="-flow-random-route-1230e989-74cd-49b1-bb46-4509fbc4fbed--7880287394296412225-23-0.2" type="actor-car--9221128364550598081" depart="240.00" departLane="0" departPos="28.73" departSpeed="max" arrivalLane="1" arrivalPos="79.57">
        <route edges="gneE16 gneE7.117 gneE10"/>
    </vehicle>
    <vehicle id="-flow-random-route-16e7d801-727e-45ea-9b58-9456024890e2--7880287394296412225-10-0.2" type="actor-car--9221128364550598081" depart="240.00" departLane="0" departPos="44.91" departSpeed="max" arrivalLane="0" arrivalPos="71.29">
        <route edges="gneE2 gneE1 gneE16"/>
    </vehicle>
    <vehicle id="-flow-random-route-3517c553-ad3f-4599-86a4-11ac195d9457--7880287394296412225-19-0.2" type="actor-car--9221128364550598081" depart="240.00" departLane="0" departPos="0.98" departSpeed="max" arrivalLane="0" arrivalPos="31.10">
        <route edges="gneE5 gneE7 gneE7.117 gneE7.141 gneE8 gneE9 gneE2 gneE1 gneE1.12 gneE5"/>
    </vehicle>
    <vehicle id="-flow-random-route-36123046-af3a-4207-a97f-68de0fc3e049--7880287394296412225-8-0.2" type="actor-car--9221128364550598081" depart="240.00" departLane="1" departPos="8.63" departSpeed="max" arrivalLane="0" arrivalPos="29.86">
        <route edges="gneE1 gneE1.12 gneE5 gneE7 gneE7.117 gneE7.141 gneE8 gneE9 gneE2 gneE1"/>
    </vehicle>
    <vehicle id="-flow-random-route-44b630b6-fbaa-4e1d-93e7-043be54a2478--7880287394296412225-1-0.2" type="actor-car--9221128364550598081" depart="240.00" departLane="0" departPos="152.32" departSpeed="max" arrivalLane="1" arrivalPos="31.01">
        <route edges="gneE8 gneE9 gneE2 gneE1 gneE1.12 gneE5 gneE7 gneE7.117 gneE7.141 gneE8"/>
    </vehicle>
    <vehicle id="-flow-random-route-5f666096-1a2f-4de9-9edd-3f394004c5a9--7880287394296412225-25-0.2" type="actor-car--9221128364550598081" depart="240.00" departLane="0" departPos="46.08" departSpeed="max" arrivalLane="1" arrivalPos="9.68">
        <route edges="gneE10 gneE3 gneE1"/>
    </vehicle>
    <vehicle id="-flow-random-route-609183b2-e78d-4b00-bad5-b36daafabe9c--7880287394296412225-22-0.2" type="actor-car--9221128364550598081" depart="240.00" departLane="1" departPos="10.60" departSpeed="max" arrivalLane="1" arrivalPos="51.84">
        <route edges="gneE7.141 gneE8 gneE9 gneE2 gneE1 gneE1.12 gneE5 gneE7 gneE7.117 gneE10"/>
    </vehicle>
    <vehicle id="-flow-random-route-695307f7-5ac3-4789-b9fe-fbc4e0cbeed8--7880287394296412225-2-0.2" type="actor-car--9221128364550598081" depart="240.00" departLane="0" departPos="80.76" departSpeed="max" arrivalLane="1" arrivalPos="8.62">
        <route edges="gneE9 gneE2 gneE1 gneE1.12 gneE5 gneE7 gneE7.117 gneE7.141 gneE8 gneE9"/>
    </vehicle>
    <vehicle id="-flow-random-route-736e8ff5-4761-4e37-af71-2d36c6fda286--7880287394296412225-15-0.2" type="actor-car--9221128364550598081" depart="240.00" departLane="0" departPos="101.00" departSpeed="max" arrivalLane="1" arrivalPos="35.45">
        <route edges="gneE16 gneE7.117 gneE10 gneE3 gneE1"/>
    </vehicle>
    <vehicle id="-flow-random-route-76651a7c-0ba0-4b66-89f2-37086d325c31--7880287394296412225-5-0.2" type="actor-car--9221128364550598081" depart="240.00" departLane="0" departPos="63.76" departSpeed="max" arrivalLane="1" arrivalPos="49.06">
        <route edges="gneE16 gneE7.117 gneE7.141 gneE8 gneE9 gneE2 gneE1 gneE1.12 gneE5 gneE7"/>
    </vehicle>
    <vehicle id="-flow-random-route-7a448778-b39d-4d2e-9fb6-3c7da250642b--7880287394296412225-28-0.2" type="actor-car--9221128364550598081" depart="240.00" departLane="1" departPos="32.90" departSpeed="max" arrivalLane="1" arrivalPos="94.52">
        <route edges="gneE1.12 gneE5 gneE7 gneE7.117 gneE10"/>
    </vehicle>
    <vehicle id="-flow-random-route-7c89f3fe-13a3-489d-8989-9dfe51727e5c--7880287394296412225-24-0.2" type="actor-car--9221128364550598081" depart="240.00" departLane="0" departPos="142.73" departSpeed="max" arrivalLane="1" arrivalPos="25.42">
        <route edges="gneE8 gneE9 gneE2"/>
    </vehicle>
    <vehicle id="-flow-random-route-858424be-73ba-4343-a16d-c452db5e1855--7880287394296412225-0-0.2" type="actor-car--9221128364550598081" depart="240.00" departLane="0" departPos="32.02" departSpeed="max" arrivalLane="0" arrivalPos="63.63">
        <route edges="gneE2 gneE1 gneE16 gneE7.117 gneE10"/>
    </vehicle>
    <vehicle id="-flow-random-route-8bfc952d-1aa2-47c0-9b40-108b45ac3605--7880287394296412225-12-0.2" type="actor-car--9221128364550598081" depart="240.00" departLane="1" departPos="139.88" departSpeed="max" arrivalLane="0" arrivalPos="27.74">
        <route edges="gneE7.117 gneE10 gneE3"/>
    </vehicle>
    <vehicle id="-flow-random-route-8dc14053-1256-42a5-95b8-e5555b82242b--7880287394296412225-20-0.2" type="actor-car--9221128364550598081" depart="240.00" departLane="1" departPos="86.24" departSpeed="max" arrivalLane="0" arrivalPos="123.11">
        <route edges="gneE1.12 gneE5 gneE7 gneE7.117 gneE7.141 gneE8 gneE9 gneE2 gneE1 gneE16"/>
    </vehicle>
    <vehicle id="-flow-random-route-9b845728-edba-403f-be21-7cc9731a315c--7880287394296412225-17-0.2" type="actor-car--9221128364550598081" depart="240.00" departLane="0" departPos="52.27" departSpeed="max" arrivalLane="1" arrivalPos="28.92">
        <route edges="gneE5 gneE7 gneE7.117 gneE10 gneE3"/>
    </vehicle>
    <vehicle id="-flow-random-route-9bbfe934-8e17-4bca-aa56-331a8a4bb2b0--7880287394296412225-21-0.2" type="actor-car--9221128364550598081" depart="240.00" departLane="0" departPos="10.39" departSpeed="max" arrivalLane="0" arrivalPos="19.22">
        <route edges="gneE3 gneE1 gneE1.12 gneE5 gneE7 gneE7.117 gneE10 gneE3 gneE1 gneE16"/>
    </vehicle>
    <vehicle id="-flow-random-route-a1611de4-8d05-480b-b6d0-3d02087d95cb--7880287394296412225-14-0.2" type="actor-car--9221128364550598081" depart="240.00" departLane="0" departPos="127.37" departSpeed="max" arrivalLane="0" arrivalPos="60.15">
        <route edges="gneE16 gneE7.117 gneE10 gneE3 gneE1 gneE16 gneE7.117 gneE7.141 gneE8 gneE9"/>
    </vehicle>
    <vehicle id="-flow-random-route-b33c209c-f465-4ba1-a931-f77e98880362--7880287394296412225-16-0.2" type="actor-car--9221128364550598081" depart="240.00" departLane="1" departPos="78.44" departSpeed="max" arrivalLane="0" arrivalPos="6.23">
        <route edges="gneE5 gneE7 gneE7.117 gneE7.141 gneE8 gneE9 gneE2 gneE1 gneE1.12 gneE5"/>
    </vehicle>
    <vehicle id="-flow-random-route-b962a3ce-469d-4bec-9f42-1a4faae52100--7880287394296412225-29-0.2" type="actor-car--9221128364550598081" depart="240.00" departLane="0" departPos="3.52" departSpeed="max" arrivalLane="0" arrivalPos="170.89">
        <route edges="gneE7.117 gneE7.141 gneE8"/>
    </vehicle>
    <vehicle id="-flow-random-route-bc6b02b0-ccfb-49fb-ba03-3ccc6f0c2819--7880287394296412225-4-0.2" type="actor-car--9221128364550598081" depart="240.00" departLane="1" departPos="57.92" departSpeed="max" arrivalLane="1" arrivalPos="35.13">
        <route edges="gneE7.117 gneE10 gneE3 gneE1 gneE16 gneE7.117 gneE7.141 gneE8 gneE9 gneE2"/>
    </vehicle>
    <vehicle id="-flow-random-route-ca354497-b0ca-4e9e-a1a4-fa10a40e8169--7880287394296412225-27-0.2" type="actor-car--9221128364550598081" depart="240.00" departLane="0" departPos="22.38" departSpeed="max" arrivalLane="0" arrivalPos="75.84">
        <route edges="gneE7 gneE7.117 gneE10 gneE3 gneE1 gneE16 gneE7.117 gneE7.141 gneE8 gneE9"/>
    </vehicle>
    <vehicle id="-flow-random-route-cb96b5d0-33c3-49bd-8b9c-04a911cdc503--7880287394296412225-26-0.2" type="actor-car--9221128364550598081" depart="240.00" departLane="1" departPos="101.44" departSpeed="max" arrivalLane="0" arrivalPos="32.83">
        <route edges="gneE1.12 gneE5 gneE7 gneE7.117 gneE7.141 gneE8 gneE9 gneE2 gneE1 gneE16"/>
    </vehicle>